geometry optimzed in LAMMPS
_audit_creation_date              2020-11-30 
_audit_creation_method            'lammps2cif' 
_symmetry_space_group_name_H-M    'P1' 
_symmetry_Int_Tables_number       1 
_symmetry_cell_setting            triclinic 
loop_ 
_symmetry_equiv_pos_as_xyz 
  x,y,z 
_cell_length_a                    26.83472391 
_cell_length_b                    28.074378123309117 
_cell_length_c                    38.987506037412665 
_cell_angle_alpha                 89.98497370205251 
_cell_angle_beta                  90.63221497219885 
_cell_angle_gamma                 120.58381699841958 
loop_ 
_atom_site_label 
_atom_site_type_symbol 
_atom_site_fract_x 
_atom_site_fract_y 
_atom_site_fract_z 
_atom_site_charge 
C1          C  0.01274596  0.78703475  0.25023369    -0.02200
C2          C  0.22723244  0.01047982  0.24506043    -0.02200
C3          C  0.23175387  0.22640114  0.23679263    -0.02200
C4          C  0.00404967  0.22219967  0.24236395    -0.02200
C5          C  0.78208292  0.00281243  0.24989397    -0.02200
C6          C  0.78903439  0.79187897  0.25174891    -0.02200
In7        In  0.34600056  0.41382379  0.42470397     1.36900
C8          C  0.44180085  0.51322213  0.42541883     0.77900
O9          O  0.29487669  0.45525309  0.41312678    -0.60600
O10         O  0.25355106  0.37990276  0.44074863    -0.51500
C11         C  0.32171451  0.35410277  0.36673483     0.70500
O12         O  0.34255584  0.40570145  0.36745429    -0.46400
C13         C  0.37079634  0.37380350  0.47999861     0.75200
O14         O  0.43602959  0.47389499  0.40693552    -0.58200
O15         O  0.33798020  0.39361211  0.48084734    -0.48300
O16         O  0.39856921  0.50202828  0.44339881    -0.54700
C17         C  0.24974975  0.41905818  0.42771055     0.85400
O18         O  0.31467910  0.33262366  0.39600974    -0.56500
O19         O  0.38993565  0.37312816  0.45073199    -0.59800
In20       In  0.59594893  0.66158727  0.43178675     1.36900
C21         C  0.49532852  0.56710172  0.42660521     0.77900
O22         O  0.64546900  0.62619895  0.45800287    -0.60600
O23         O  0.60408822  0.65679813  0.48934605    -0.51500
C24         C  0.66756843  0.68734176  0.37878687     0.70500
O25         O  0.61472758  0.65088094  0.37640661    -0.46400
C26         C  0.58713170  0.75339172  0.43317306     0.75200
O27         O  0.53872899  0.57723293  0.40913112    -0.58200
O28         O  0.62339132  0.74786933  0.45088810    -0.48300
O29         O  0.50229156  0.60623461  0.44578233    -0.54700
C30         C  0.63334205  0.63329803  0.48793676     0.85400
O31         O  0.68344419  0.70867631  0.40830770    -0.56500
O32         O  0.55481526  0.71188033  0.41458049    -0.59800
In33       In  0.67479960  0.57290537  0.57374693     1.36900
C34         C  0.57724092  0.47485167  0.57432411     0.77900
O35         O  0.63803249  0.62104499  0.54857337    -0.60600
O36         O  0.67548015  0.58656307  0.51676035    -0.51500
C37         C  0.70232732  0.63483197  0.63042877     0.70500
O38         O  0.67802887  0.58289589  0.63136105    -0.46400
C39         C  0.77249836  0.57067994  0.57031593     0.75200
O40         O  0.58168792  0.51726584  0.58835111    -0.58200
O41         O  0.76329767  0.60301585  0.55256429    -0.48300
O42         O  0.62282601  0.48221382  0.56055144    -0.54700
C43         C  0.64991209  0.61370980  0.51853810     0.85400
O44         O  0.71151708  0.65459708  0.60058191    -0.56500
O45         O  0.73147397  0.53884231  0.58948349    -0.59800
In46       In  0.42226840  0.32685085  0.56743747     1.36900
C47         C  0.52282081  0.42159984  0.57316334     0.77900
O48         O  0.46173892  0.27532957  0.58166601    -0.60600
O49         O  0.39153923  0.24210879  0.54595734    -0.51500
C50         C  0.35445013  0.29946549  0.62257096     0.70500
O51         O  0.40855716  0.33163704  0.62378826    -0.46400
C52         C  0.38696908  0.35484164  0.51087089     0.75200
O53         O  0.47642002  0.41523078  0.58514555    -0.58200
O54         O  0.42034562  0.33567960  0.51016891    -0.48300
O55         O  0.51836353  0.37905478  0.55925147    -0.54700
C56         C  0.42751530  0.23503635  0.56284945     0.85400
O57         O  0.33475618  0.28135163  0.59288204    -0.56500
O58         O  0.37001180  0.35800182  0.54033204    -0.59800
In59       In  0.09738391  0.42160547  0.42500808     1.36900
C60         C  0.02896319  0.38203459  0.47884543     0.77900
O61         O  0.15132286  0.38569473  0.44313499    -0.60600
O62         O  0.19204205  0.45918342  0.41366968    -0.51500
C63         C  0.06051745  0.35817462  0.36890775     0.70500
O64         O  0.04358800  0.33899642  0.39848055    -0.46400
C65         C  0.10089130  0.51861845  0.42239024     0.75200
O66         O  0.00961834  0.37478069  0.44851913    -0.58200
O67         O  0.13542625  0.51126735  0.44066564    -0.48300
O68         O  0.08342126  0.40850476  0.48169271    -0.54700
C69         C  0.19656897  0.42164267  0.42849358     0.85400
O70         O  0.09387489  0.40996097  0.36823208    -0.56500
O71         O  0.06602960  0.47716622  0.40461007    -0.59800
In72       In  0.92194148  0.33273856  0.56228131     1.36900
C73         C  0.91956625  0.42589226  0.56851289     0.77900
O74         O  0.01004820  0.37210637  0.53890863    -0.60600
O75         O  0.93651793  0.33652616  0.50557747    -0.51500
C76         C  0.95323109  0.30308492  0.61954314     0.70500
O77         O  0.91993540  0.32246725  0.61884297    -0.46400
C78         C  0.82249142  0.23758083  0.55635034     0.75200
O79         O  0.95519557  0.41748090  0.58475661    -0.58200
O80         O  0.86944423  0.24354997  0.54559186    -0.48300
O81         O  0.88415968  0.38621295  0.54971914    -0.54700
C82         C  0.99091834  0.36263872  0.50851166     0.85400
O83         O  0.97288257  0.30105252  0.59069688    -0.56500
O84         O  0.82583464  0.28090960  0.56811941    -0.59800
In85       In  0.92932316  0.57707766  0.56870754     1.36900
C86         C  0.92096234  0.47865629  0.57016252     0.77900
O87         O  0.83881180  0.54207998  0.58871476    -0.60600
O88         O  0.86701396  0.60172497  0.54895780    -0.51500
C89         C  0.97132626  0.64519381  0.62209072     0.70500
O90         O  0.96198348  0.59644976  0.62352157    -0.46400
C91         C  0.99366227  0.61554616  0.51319134     0.75200
O92         O  0.95955249  0.51985007  0.58660284    -0.58200
O93         O  0.93938820  0.58609695  0.51182884    -0.48300
O94         O  0.88512475  0.48705513  0.55415388    -0.54700
C95         C  0.82723920  0.57111870  0.56918702     0.85400
O96         O  0.96342396  0.65981627  0.59294974    -0.56500
O97         O  0.01529754  0.62639590  0.54299193    -0.59800
In98       In  0.09174480  0.66175052  0.42641250     1.36900
C99         C  0.09961302  0.57043698  0.42275509     0.77900
O100        O  0.18559331  0.71914503  0.41380792    -0.60600
O101        O  0.14276821  0.75197837  0.44206227    -0.51500
C102        C  0.04710947  0.68181963  0.37090733     0.70500
O103        O  0.08348064  0.66601400  0.37015162    -0.46400
C104        C  0.02871257  0.63402314  0.48239821     0.75200
O105        O  0.06304933  0.57640944  0.40570065    -0.58200
O106        O  0.08322029  0.66225054  0.48347656    -0.48300
O107        O  0.13349472  0.61175209  0.44096340    -0.54700
C108        C  0.18862624  0.76106159  0.42773220     0.85400
O109        O  0.03084193  0.68494227  0.40061097    -0.56500
O110        O  0.00652095  0.62141649  0.45274638    -0.59800
In111      In  0.42169139  0.08565591  0.56377176     1.36900
C112        C  0.38226507  0.01905003  0.50937761     0.77900
O113        O  0.39184390  0.14214528  0.54389679    -0.60600
O114        O  0.46224171  0.17495459  0.57947562    -0.51500
C115        C  0.35597970  0.05034575  0.61932768     0.70500
O116        O  0.33552859  0.04608470  0.58944392    -0.46400
C117        C  0.52180788  0.08879151  0.56626264     0.75200
O118        O  0.36869916  0.00141695  0.53955048    -0.58200
O119        O  0.51500573  0.12372794  0.54978110    -0.48300
O120        O  0.41347024  0.07082679  0.50691473    -0.54700
C121        C  0.42772901  0.18302657  0.56172495     0.85400
O122        O  0.41013044  0.07082257  0.62041976    -0.56500
O123        O  0.47821756  0.05370645  0.58258489    -0.59800
In124      In  0.33837870  0.91541933  0.42544456     1.36900
C125        C  0.43244780  0.90490466  0.42683134     0.77900
O126        O  0.38419771  0.99963913  0.44999088    -0.60600
O127        O  0.33190789  0.93059755  0.48150265    -0.51500
C128        C  0.31825153  0.95935439  0.36932866     0.70500
O129        O  0.33975366  0.92852781  0.36858532    -0.46400
C130        C  0.24127042  0.81607077  0.42685290     0.75200
O131        O  0.42677306  0.93707281  0.40676395    -0.58200
O132        O  0.24540685  0.85815236  0.44125587    -0.48300
O133        O  0.39010073  0.87790748  0.44629857    -0.54700
C134        C  0.36517608  0.98220661  0.47953051     0.85400
O135        O  0.30695923  0.96823782  0.39911921    -0.56500
O136        O  0.28604479  0.82497967  0.41132053    -0.59800
In137      In  0.58534774  0.90167021  0.43204911     1.36900
C138        C  0.48503703  0.90079328  0.42788233     0.77900
O139        O  0.54786257  0.81106526  0.41669335    -0.60600
O140        O  0.61931405  0.84690532  0.45098218    -0.51500
C141        C  0.65089798  0.94445927  0.37684618     0.70500
O142        O  0.59631073  0.91696016  0.37568025    -0.46400
C143        C  0.62652566  0.97254748  0.48505700     0.75200
O144        O  0.52761270  0.92996245  0.40906665    -0.58200
O145        O  0.59662037  0.92084319  0.48908304    -0.48300
O146        O  0.49221192  0.86946764  0.44801243    -0.54700
C147        C  0.58427436  0.80478484  0.43377235     0.85400
O148        O  0.67226440  0.94926873  0.40653866    -0.56500
O149        O  0.63752583  0.98751392  0.45430680    -0.59800
In150      In  0.67317064  0.08602309  0.56473213     1.36900
C151        C  0.57577505  0.08813183  0.56585655     0.77900
O152        O  0.72309021  0.17830839  0.56977796    -0.60600
O153        O  0.76536557  0.13952851  0.54746307    -0.51500
C154        C  0.70113279  0.06069114  0.62509257     0.70500
O155        O  0.67719698  0.08922603  0.62289573    -0.46400
C156        C  0.64502721  0.01261489  0.51354690     0.75200
O157        O  0.58295423  0.05407295  0.58306105    -0.58200
O158        O  0.67198135  0.06417901  0.50888331    -0.48300
O159        O  0.61820615  0.12092091  0.54786389    -0.54700
C160        C  0.76879896  0.18390454  0.55728457     0.85400
O161        O  0.71076840  0.04596853  0.59655164    -0.56500
O162        O  0.63346797  0.99841940  0.54441357    -0.59800
C163        C  0.78350888  0.00237354  0.75069208    -0.02200
C164        C  0.77977180  0.78426107  0.75129011    -0.02200
C165        C  0.99926355  0.22589468  0.75110297    -0.02200
C166        C  0.22050594  0.22225915  0.75010474    -0.02200
C167        C  0.99771445  0.77698934  0.74563682    -0.02200
C168        C  0.21538635  0.00461116  0.74506759    -0.02200
In169      In  0.66693689  0.58357785  0.92900061     1.36900
C170        C  0.57507275  0.48172152  0.92709286     0.77900
O171        O  0.72114510  0.54627359  0.91529247    -0.60600
O172        O  0.76117268  0.62107617  0.94383590    -0.51500
C173        C  0.68528408  0.64658160  0.87361398     0.70500
O174        O  0.65483002  0.59452361  0.87256111    -0.46400
C175        C  0.63804851  0.62250407  0.98330871     0.75200
O176        O  0.58222198  0.51872566  0.90608321    -0.58200
O177        O  0.66723023  0.59897743  0.98601240    -0.48300
O178        O  0.61536987  0.49630720  0.94888193    -0.54700
C179        C  0.76654139  0.58377490  0.92958377     0.85400
O180        O  0.70546680  0.66587126  0.90304347    -0.56500
O181        O  0.62362065  0.62610561  0.95300472    -0.59800
In182      In  0.42085920  0.33388350  0.93065292     1.36900
C183        C  0.52237567  0.42713115  0.92709631     0.77900
O184        O  0.37528464  0.37484212  0.95306026    -0.60600
O185        O  0.41050384  0.34035167  0.98726604    -0.51500
C186        C  0.35036167  0.31195997  0.87793426     0.70500
O187        O  0.40455252  0.33782950  0.87466735    -0.46400
C188        C  0.41964210  0.23713451  0.93075039     0.75200
O189        O  0.48212728  0.41405154  0.90555220    -0.58200
O190        O  0.38360413  0.24441952  0.94683801    -0.48300
O191        O  0.51235362  0.39088651  0.94943280    -0.54700
C192        C  0.38421099  0.36668100  0.98365049     0.85400
O193        O  0.33245677  0.29917427  0.90820488    -0.56500
O194        O  0.45769623  0.27972267  0.91568543    -0.59800
In195      In  0.33682193  0.42554845  0.06651675     1.38100
C196        C  0.42907380  0.52667468  0.06866077     0.77900
O197        O  0.37868398  0.38182362  0.04317313    -0.60600
O198        O  0.33894021  0.41236313  0.00952124    -0.51500
C199        C  0.32650750  0.35975819  0.11805287     0.70500
O200        O  0.35371449  0.41173215  0.12101124    -0.46400
C201        C  0.23579860  0.42367734  0.06908647     0.75200
O202        O  0.42193858  0.48896044  0.08892866    -0.58200
O203        O  0.24386164  0.39229952  0.04982703    -0.48300
O204        O  0.38821443  0.51341029  0.04745237    -0.54700
C205        C  0.36652126  0.38723706  0.01277139     0.85400
O206        O  0.30312080  0.34190328  0.08900082    -0.56500
O207        O  0.27910632  0.45589538  0.08728063    -0.59800
In208      In  0.58290636  0.67458762  0.06664466     1.36900
C209        C  0.48224371  0.58064192  0.06907744     0.77900
O210        O  0.54097438  0.72618623  0.07249473    -0.60600
O211        O  0.62261325  0.76259833  0.04832692    -0.51500
C212        C  0.64329105  0.70152442  0.12595465     0.70500
O213        O  0.58871529  0.67372684  0.12492245    -0.46400
C214        C  0.62101361  0.64306023  0.01299397     0.75200
O215        O  0.52530106  0.58996884  0.08736430    -0.58200
O216        O  0.59225134  0.66690037  0.00986457    -0.48300
O217        O  0.48951003  0.62039024  0.05051256    -0.54700
C218        C  0.58181102  0.76853977  0.05870279     0.85400
O219        O  0.66633773  0.71401650  0.09676051    -0.56500
O220        O  0.63267065  0.63730813  0.04357542    -0.59800
In221      In  0.66775797  0.09215543  0.92362942     1.36900
C222        C  0.57158815  0.09689908  0.92310184     0.77900
O223        O  0.63231494  0.00731013  0.94662930    -0.60600
O224        O  0.66689956  0.07608949  0.98043677    -0.51500
C225        C  0.68439393  0.04311052  0.87027206     0.70500
O226        O  0.64920399  0.06028062  0.86872249    -0.46400
C227        C  0.76527810  0.19189757  0.92295769     0.75200
O228        O  0.58282597  0.07221723  0.90028179    -0.58200
O229        O  0.75984760  0.15187750  0.94038434    -0.48300
O230        O  0.61043928  0.12103135  0.94575904    -0.54700
C231        C  0.64316364  0.02439960  0.97714845     0.85400
O232        O  0.71063369  0.05197385  0.89872035    -0.56500
O233        O  0.72079155  0.18138941  0.90573872    -0.59800
In234      In  0.33874650  0.92103695  0.06713047     1.36900
C235        C  0.43552120  0.91718454  0.06684973     0.77900
O236        O  0.28755573  0.83231340  0.08512721    -0.60600
O237        O  0.24811137  0.86011842  0.04928692    -0.51500
C238        C  0.31708049  0.96502313  0.12132222     0.70500
O239        O  0.35130084  0.94669541  0.12271484    -0.46400
C240        C  0.36274100  0.98537740  0.01235632     0.75200
O241        O  0.42908889  0.94957676  0.08615287    -0.58200
O242        O  0.33861949  0.93356149  0.01024422    -0.48300
O243        O  0.39213692  0.88589096  0.04843672    -0.54700
C244        C  0.24356385  0.82061664  0.06699735     0.85400
O245        O  0.29427069  0.96073524  0.09215336    -0.56500
O246        O  0.37350273  0.00442864  0.04246956    -0.59800
In247      In  0.58922023  0.91904029  0.05998637     1.36900
C248        C  0.62731856  0.98696436  0.00652752     0.77900
O249        O  0.62545332  0.86498685  0.04497797    -0.60600
O250        O  0.54256452  0.82710862  0.06777386    -0.51500
C251        C  0.65248334  0.95029654  0.11714705     0.70500
O252        O  0.67436558  0.96951027  0.08829223    -0.46400
C253        C  0.48966563  0.91683006  0.06517309     0.75200
O254        O  0.63538428  0.00411666  0.03708075    -0.58200
O255        O  0.49673493  0.88634202  0.04450011    -0.48300
O256        O  0.60263180  0.93509099  0.00325042    -0.54700
C257        C  0.58300092  0.82133685  0.05656127     0.85400
O258        O  0.59862329  0.91722516  0.11651202    -0.56500
O259        O  0.53312197  0.94778365  0.08368416    -0.59800
In260      In  0.41277565  0.08510176  0.92707451     1.36900
C261        C  0.51640229  0.09526025  0.92383581     0.77900
O262        O  0.45296592  0.17588917  0.91320179    -0.60600
O263        O  0.37799406  0.14030971  0.94355918    -0.51500
C264        C  0.34098641  0.03436777  0.87417283     0.70500
O265        O  0.39499259  0.06378317  0.87078093    -0.46400
C266        C  0.37863470  0.02068877  0.98209897     0.75200
O267        O  0.47737902  0.06940987  0.90159410    -0.58200
O268        O  0.40011341  0.07229159  0.98399133    -0.48300
O269        O  0.50328920  0.11755581  0.94729871    -0.54700
C270        C  0.41689722  0.18321030  0.92921821     0.85400
O271        O  0.32394787  0.02917685  0.90471929    -0.56500
O272        O  0.37332351  0.00188715  0.95213399    -0.59800
In273      In  0.09119508  0.66890584  0.06910215     1.36900
C274        C  0.09295374  0.57473128  0.07362859     0.77900
O275        O  0.00445295  0.63411659  0.04255212    -0.60600
O276        O  0.07898154  0.66362474  0.01165473    -0.51500
C277        C  0.05365591  0.69621264  0.12413383     0.70500
O278        O  0.07974385  0.66956417  0.12604189    -0.46400
C279        C  0.19065920  0.76583121  0.06678971     0.75200
O280        O  0.05529367  0.58177975  0.08793220    -0.58200
O281        O  0.14615794  0.75584862  0.04982687    -0.48300
O282        O  0.13127896  0.61656521  0.05799789    -0.54700
C283        C  0.02468192  0.64130887  0.01273072     0.85400
O284        O  0.04411157  0.70648003  0.09412325    -0.56500
O285        O  0.18549402  0.72544825  0.08387193    -0.59800
In286      In  0.91839578  0.34401351  0.92347986     1.36900
C287        C  0.91418842  0.43597385  0.92156758     0.77900
O288        O  0.82545348  0.28693466  0.90597560    -0.60600
O289        O  0.86350880  0.25520308  0.93992357    -0.51500
C290        C  0.96955721  0.33091956  0.86928466     0.70500
O291        O  0.93875071  0.35292400  0.86693228    -0.46400
C292        C  0.98071133  0.37028405  0.98133060     0.75200
O293        O  0.95312628  0.43128160  0.90709877    -0.58200
O294        O  0.92644678  0.34826765  0.98113513    -0.48300
O295        O  0.87566686  0.39283691  0.93593050    -0.54700
C296        C  0.81930461  0.24604570  0.92289781     0.85400
O297        O  0.97367775  0.31601324  0.89920714    -0.56500
O298        O  0.00286085  0.37740827  0.95213215    -0.59800
In299      In  0.92041082  0.58473323  0.92568417     1.36900
C300        C  0.98776387  0.62341440  0.98175768     0.77900
O301        O  0.86850663  0.62432388  0.93999204    -0.60600
O302        O  0.82467292  0.54412353  0.91734618    -0.51500
C303        C  0.95436919  0.63844280  0.86654749     0.70500
O304        O  0.97461689  0.66165033  0.89518242    -0.46400
C305        C  0.91520213  0.48828694  0.92248016     0.75200
O306        O  0.00792148  0.63034938  0.95195249    -0.58200
O307        O  0.87868614  0.49473241  0.93866745    -0.48300
O308        O  0.93329598  0.59840808  0.98288989    -0.54700
C309        C  0.82126731  0.58409325  0.92914918     0.85400
O310        O  0.91773962  0.58758345  0.86831135    -0.56500
O311        O  0.95391489  0.53086226  0.90782109    -0.59800
In312      In  0.07970172  0.42096950  0.07015727     1.36900
C313        C  0.09040627  0.52110704  0.07385883     0.77900
O314        O  0.17169946  0.45380967  0.08921199    -0.60600
O315        O  0.13803996  0.39112546  0.05098223    -0.51500
C316        C  0.02930565  0.34935974  0.12141772     0.70500
O317        O  0.05407486  0.40110278  0.12546637    -0.46400
C318        C  0.01561558  0.38742068  0.01292052     0.75200
O319        O  0.05134724  0.47938610  0.08907827    -0.58200
O320        O  0.07001600  0.41127267  0.01283812    -0.48300
O321        O  0.12542109  0.51233913  0.05773107    -0.54700
C322        C  0.18051334  0.42284940  0.06989833     0.85400
O323        O  0.02960885  0.33443792  0.09099759    -0.56500
O324        O  0.99377364  0.38034466  0.04222534    -0.59800
C325        C  0.30151796  0.98160886  0.81855184    -0.12000
C326        C  0.30088456  0.01597566  0.84447975     0.05000
C327        C  0.26365903  0.03680546  0.84083804    -0.07300
C328        C  0.23877944  0.03451785  0.80892201    -0.08000
C329        C  0.24306457  0.00463338  0.78080668    -0.02600
C330        C  0.26819680  0.97162452  0.78821697     0.04200
N331        N  0.25610038  0.92516591  0.76712721     0.66700
H332        H  0.32561340  0.96064994  0.82252120     0.15600
H333        H  0.21354782  0.05460996  0.80700286     0.15400
N334        N  0.24866486  0.05817019  0.86977442     0.74400
O335        O  0.29551158  0.92484190  0.75004726    -0.39000
O336        O  0.21198890  0.87952987  0.77389825    -0.38900
O337        O  0.28771095  0.09829127  0.88669163    -0.39700
O338        O  0.19976340  0.02864732  0.88322063    -0.39700
C339        C  0.06509276  0.87506530  0.76848795    -0.12000
C340        C  0.05538870  0.83536141  0.74316587     0.05000
C341        C  0.09730777  0.85481910  0.71637998    -0.07300
C342        C  0.14784322  0.90695053  0.71883183    -0.08000
C343        C  0.15659032  0.94730387  0.74357888    -0.02600
C344        C  0.11251761  0.92939852  0.76887925     0.04200
N345        N  0.11608987  0.96284607  0.79751272     0.66700
H346        H  0.03484448  0.86400605  0.78897536     0.15600
H347        H  0.18054294  0.91440104  0.70039995     0.15400
N348        N  0.09009022  0.82557602  0.68501955     0.74400
O349        O  0.08783254  0.98748996  0.79631066    -0.39000
O350        O  0.12621546  0.94983461  0.82666535    -0.38900
O351        O  0.06247453  0.83174947  0.66070241    -0.39700
O352        O  0.12621455  0.81094316  0.67795616    -0.39700
C353        C  0.94755679  0.68418841  0.77635754    -0.12000
C354        C  0.99587210  0.73886753  0.77567212     0.05000
C355        C  0.03599821  0.75425010  0.80344706    -0.07300
C356        C  0.02158774  0.72084972  0.83270291    -0.08000
C357        C  0.97084456  0.66912001  0.83390999    -0.02600
C358        C  0.93574999  0.64921165  0.80427696     0.04200
N359        N  0.88574345  0.59498069  0.80259530     0.66700
H360        H  0.91735304  0.66808700  0.75516456     0.15600
H361        H  0.05169130  0.73471444  0.85425024     0.15400
N362        N  0.09451293  0.79725855  0.80075596     0.74400
O363        O  0.83644917  0.58903271  0.80732521    -0.39000
O364        O  0.88934109  0.55690069  0.78777670    -0.38900
O365        O  0.11408065  0.83703748  0.82186340    -0.39700
O366        O  0.12887655  0.78396626  0.78820779    -0.39700
C367        C  0.26110689  0.10712262  0.74933236    -0.12000
C368        C  0.20945146  0.05752614  0.74246650     0.05000
C369        C  0.16149581  0.06289788  0.73203846    -0.07300
C370        C  0.16651980  0.11576929  0.73321911    -0.08000
C371        C  0.21692719  0.16419656  0.74588527    -0.02600
C372        C  0.26641019  0.15865547  0.75180096     0.04200
N373        N  0.32137893  0.20252717  0.76462295     0.66700
H374        H  0.29863112  0.10530185  0.75579908     0.15600
H375        H  0.13018955  0.11843661  0.72347620     0.15400
N376        N  0.10956510  0.01792859  0.71733214     0.74400
O377        O  0.34712769  0.19247190  0.78837047    -0.39000
O378        O  0.35024271  0.24577975  0.74746842    -0.38900
O379        O  0.06252232  0.00083990  0.73286257    -0.39700
O380        O  0.10702368  0.01102168  0.68526484    -0.39700
C381        C  0.24921955  0.21272099  0.81226067    -0.12000
C382        C  0.24631681  0.24743910  0.78677213     0.05000
C383        C  0.26311858  0.30212672  0.79863668    -0.07300
C384        C  0.29974232  0.32430272  0.82763900    -0.08000
C385        C  0.31102791  0.29050404  0.84842016    -0.02600
C386        C  0.28239199  0.23396647  0.84188944     0.04200
N387        N  0.29102025  0.19827078  0.86393937     0.66700
H388        H  0.22781620  0.16836729  0.80911552     0.15600
H389        H  0.31570107  0.36676442  0.83541543     0.15400
N390        N  0.23405543  0.33044075  0.78778449     0.74400
O391        O  0.33902412  0.20020673  0.86314754    -0.39000
O392        O  0.25929890  0.17839651  0.88986212    -0.38900
O393        O  0.18418699  0.31315058  0.79952833    -0.39700
O394        O  0.26363834  0.38105574  0.78036695    -0.39700
C395        C  0.15739577  0.26288720  0.73342608    -0.12000
C396        C  0.16066491  0.21862086  0.74837772     0.05000
C397        C  0.11028952  0.17778187  0.76542161    -0.07300
C398        C  0.05813241  0.17714419  0.76143328    -0.08000
C399        C  0.05613089  0.22346616  0.74905147    -0.02600
C400        C  0.10906410  0.26875864  0.73737342     0.04200
N401        N  0.11561466  0.32170497  0.73011656     0.66700
H402        H  0.19544972  0.29770789  0.72259492     0.15600
H403        H  0.02042384  0.14262834  0.77264790     0.15400
N404        N  0.11100199  0.13904219  0.78909088     0.74400
O405        O  0.12694987  0.35513509  0.75464681    -0.39000
O406        O  0.12893561  0.34089079  0.70017785    -0.38900
O407        O  0.12634405  0.15467961  0.81968491    -0.39700
O408        O  0.07741621  0.08801599  0.78355227    -0.39700
C409        C  0.00489642  0.31311996  0.77801560    -0.12000
C410        C  0.00908831  0.26521085  0.78202125     0.05000
C411        C  0.02180486  0.25483872  0.81610636    -0.07300
C412        C  0.01403953  0.28132928  0.84403642    -0.08000
C413        C  0.99498122  0.31877343  0.83947536    -0.02600
C414        C  0.99596536  0.33875279  0.80623289     0.04200
N415        N  0.98906131  0.38536416  0.80059952     0.66700
H416        H  0.00626434  0.33015703  0.75300354     0.15600
H417        H  0.01846773  0.26870983  0.86962957     0.15400
N418        N  0.03941023  0.21576031  0.82388186     0.74400
O419        O  0.03358662  0.43247172  0.79697639    -0.39000
O420        O  0.94056282  0.37773010  0.79078413    -0.38900
O421        O  0.09073464  0.23412010  0.83421801    -0.39700
O422        O  0.00167873  0.16698093  0.83179236    -0.39700
C423        C  0.86020249  0.77260215  0.78035688    -0.12000
C424        C  0.84330649  0.79437482  0.75312270     0.05000
C425        C  0.88558933  0.82171527  0.72671920    -0.07300
C426        C  0.93718831  0.82008036  0.72688505    -0.08000
C427        C  0.94846123  0.79055558  0.75186812    -0.02600
C428        C  0.91356430  0.77589050  0.78180788     0.04200
N429        N  0.93302204  0.77062195  0.81526173     0.66700
H430        H  0.83288287  0.75229223  0.80176257     0.15600
H431        H  0.96615630  0.83763256  0.70537034     0.15400
N432        N  0.87716682  0.84982480  0.69862353     0.74400
O433        O  0.96621978  0.81429452  0.83186569    -0.39000
O434        O  0.90167991  0.72723308  0.83212408    -0.38900
O435        O  0.90541421  0.90205870  0.69886546    -0.39700
O436        O  0.86292869  0.82571890  0.66986034    -0.39700
C437        C  0.69434870  0.69784251  0.78190410    -0.12000
C438        C  0.74357425  0.75201612  0.78411978     0.05000
C439        C  0.75964067  0.77386368  0.81804908    -0.07300
C440        C  0.73843262  0.73915583  0.84662675    -0.08000
C441        C  0.69875454  0.68260280  0.84303313    -0.02600
C442        C  0.67418652  0.66257887  0.81031740     0.04200
N443        N  0.63009155  0.60617770  0.80496642     0.66700
H444        H  0.67216257  0.68072103  0.75781066     0.15600
H445        H  0.75465902  0.75683097  0.87186506     0.15400
N446        N  0.79622626  0.83127424  0.82459438     0.74400
O447        O  0.57815174  0.59419866  0.80163234    -0.39000
O448        O  0.64426114  0.57200449  0.79493983    -0.38900
O449        O  0.77219036  0.85609277  0.83655430    -0.39700
O450        O  0.84916476  0.85003366  0.83121980    -0.39700
C451        C  0.85068656  0.09889505  0.77690945    -0.12000
C452        C  0.84289321  0.05829317  0.75251415     0.05000
C453        C  0.88580787  0.07661365  0.72660946    -0.07300
C454        C  0.93635392  0.12822248  0.72965463    -0.08000
C455        C  0.94554285  0.16693694  0.75573717    -0.02600
C456        C  0.90080285  0.15025839  0.78034794     0.04200
N457        N  0.90109573  0.18412911  0.80801374     0.66700
H458        H  0.81627918  0.09317559  0.79350952     0.15600
H459        H  0.96770873  0.13990258  0.70940751     0.15400
N460        N  0.87553806  0.04977213  0.69390330     0.74400
O461        O  0.87713499  0.21235152  0.80346838    -0.39000
O462        O  0.90283396  0.16889253  0.83824384    -0.38900
O463        O  0.90522211  0.02838740  0.68566709    -0.39700
O464        O  0.85767694  0.06772716  0.66993782    -0.39700
C465        C  0.73383642  0.89680791  0.74984517    -0.12000
C466        C  0.78724312  0.94802036  0.75023713     0.05000
C467        C  0.83791208  0.94389799  0.75516853    -0.07300
C468        C  0.83325069  0.89172508  0.75517287    -0.08000
C469        C  0.78072947  0.84095218  0.75019278    -0.02600
C470        C  0.72984864  0.84464014  0.75083213     0.04200
N471        N  0.67449453  0.79723346  0.75819597     0.66700
H472        H  0.69370072  0.89724673  0.74952781     0.15600
H473        H  0.87261476  0.89215989  0.76169992     0.15400
N474        N  0.89417313  0.98968956  0.76405773     0.74400
O475        O  0.65163687  0.79398221  0.78687955    -0.39000
O476        O  0.64881155  0.75807934  0.73692111    -0.38900
O477        O  0.90957762  0.99577138  0.79515224    -0.39700
O478        O  0.93389352  0.00443387  0.74245733    -0.39700
C479        C  0.74366884  0.00857614  0.84556404    -0.12000
C480        C  0.69734522  0.01729103  0.84124474     0.05000
C481        C  0.66875056  0.00470072  0.80912839    -0.07300
C482        C  0.69192927  0.99093700  0.78133729    -0.08000
C483        C  0.74699825  0.99557698  0.78372686    -0.02600
C484        C  0.76907208  0.99837266  0.81777400     0.04200
N485        N  0.82227755  0.00032592  0.82504531     0.66700
H486        H  0.76447482  0.01490228  0.87050172     0.15600
H487        H  0.66817299  0.98064210  0.75729014     0.15400
N488        N  0.61755151  0.00744218  0.80373078     0.74400
O489        O  0.86630696  0.04674170  0.83193137    -0.39000
O490        O  0.81917541  0.95882334  0.83938383    -0.38900
O491        O  0.62121042  0.04865637  0.78836481    -0.39700
O492        O  0.56887959  0.96363599  0.80568691    -0.39700
C493        C  0.72521410  0.99978674  0.65707729    -0.12000
C494        C  0.71643732  0.04438511  0.65788277     0.05000
C495        C  0.72362770  0.07168159  0.68934714    -0.07300
C496        C  0.74439407  0.05675188  0.71819558    -0.08000
C497        C  0.75434924  0.01149770  0.71788167    -0.02600
C498        C  0.74268733  0.98270870  0.68610778     0.04200
N499        N  0.74941039  0.93667822  0.68107188     0.66700
H500        H  0.71861927  0.97728294  0.63323701     0.15600
H501        H  0.75240382  0.08085878  0.74140176     0.15400
N502        N  0.70973220  0.11421869  0.69274067     0.74400
O503        O  0.70327815  0.89150731  0.67577429    -0.39000
O504        O  0.79499749  0.94478436  0.66681524    -0.38900
O505        O  0.66274730  0.10306146  0.70659469    -0.39700
O506        O  0.74865541  0.16409483  0.68877533    -0.39700
C507        C  0.23151871  0.01023497  0.68040590    -0.12000
C508        C  0.25631462  0.01376359  0.71341246     0.05000
C509        C  0.31755466  0.03254483  0.71383188    -0.07300
C510        C  0.34693132  0.04058258  0.68274891    -0.08000
C511        C  0.32028520  0.03484252  0.65077495    -0.02600
C512        C  0.26166505  0.01926641  0.64981054     0.04200
N513        N  0.23199521  0.01337745  0.61795873     0.66700
H514        H  0.18679795  0.99855021  0.67817360     0.15600
H515        H  0.39279092  0.05476903  0.68387659     0.15400
N516        N  0.35408018  0.05024310  0.74396922     0.74400
O517        O  0.21199490  0.96905372  0.60088199    -0.39000
O518        O  0.23309345  0.05486571  0.60464353    -0.38900
O519        O  0.37994646  0.02462113  0.75163555    -0.39700
O520        O  0.37985441  0.10091122  0.75180900    -0.39700
C521        C  0.02443032  0.71881461  0.70807563    -0.12000
C522        C  0.98745661  0.74077163  0.71255540     0.05000
C523        C  0.94142871  0.72349336  0.68777983    -0.07300
C524        C  0.94328552  0.69895172  0.65703999    -0.08000
C525        C  0.98135354  0.67968515  0.65264373    -0.02600
C526        C  0.02050994  0.68733095  0.67915313     0.04200
N527        N  0.05731257  0.66453616  0.67697528     0.66700
H528        H  0.05755259  0.72702950  0.72716355     0.15600
H529        H  0.90922882  0.68788123  0.63802076     0.15400
N530        N  0.88713647  0.71905280  0.69512405     0.74400
O531        O  0.10989046  0.69574169  0.66960648    -0.39000
O532        O  0.04156056  0.61840213  0.69074147    -0.38900
O533        O  0.85985044  0.72724554  0.67150262    -0.39700
O534        O  0.85962572  0.69201954  0.72102460    -0.39700
C535        C  0.93153591  0.27607367  0.68008033    -0.12000
C536        C  0.96563980  0.28282074  0.65169846     0.05000
C537        C  0.00647469  0.26572843  0.65424644    -0.07300
C538        C  0.01468147  0.24586469  0.68545300    -0.08000
C539        C  0.98553509  0.24506950  0.71583895    -0.02600
C540        C  0.93869138  0.25511136  0.71103238     0.04200
N541        N  0.89452502  0.24060495  0.73573709     0.66700
H542        H  0.89651797  0.28462430  0.67788951     0.15600
H543        H  0.04406073  0.23028508  0.68507921     0.15400
N544        N  0.04024796  0.26805536  0.62554672     0.74400
O545        O  0.85018231  0.19295027  0.73337903    -0.39000
O546        O  0.88861685  0.27879905  0.74838648    -0.38900
O547        O  0.08967047  0.31027493  0.62162539    -0.39700
O548        O  0.02746218  0.22395007  0.60978180    -0.39700
C549        C  0.34013118  0.31814886  0.68295229    -0.12000
C550        C  0.31794720  0.28477032  0.65364502     0.05000
C551        C  0.26160674  0.23879635  0.65485693    -0.07300
C552        C  0.23090310  0.22541652  0.68547404    -0.08000
C553        C  0.25560807  0.25362861  0.71694597    -0.02600
C554        C  0.30966298  0.30473254  0.71399929     0.04200
N555        N  0.33373968  0.34648477  0.73998384     0.66700
H556        H  0.38191180  0.35595034  0.68179642     0.15600
H557        H  0.18775062  0.18958843  0.68491487     0.15400
N558        N  0.23635162  0.20200033  0.62627859     0.74400
O559        O  0.37232816  0.34844707  0.75971954    -0.39000
O560        O  0.33563220  0.39140892  0.73341010    -0.38900
O561        O  0.23915727  0.15850029  0.62540534    -0.39700
O562        O  0.19913465  0.20494993  0.60779958    -0.39700
C563        C  0.72272542  0.72154890  0.65856676    -0.12000
C564        C  0.71874791  0.67039535  0.66135045     0.05000
C565        C  0.73133567  0.65541917  0.69316240    -0.07300
C566        C  0.75246513  0.69382199  0.72021442    -0.08000
C567        C  0.75481130  0.74559327  0.71862855    -0.02600
C568        C  0.73757265  0.75757010  0.68666446     0.04200
N569        N  0.73239590  0.80448924  0.68102572     0.66700
H570        H  0.71187268  0.73323253  0.63432132     0.15600
H571        H  0.76501623  0.68177530  0.74366605     0.15400
N572        N  0.72251794  0.60139800  0.69873142     0.74400
O573        O  0.77505476  0.84600607  0.66797544    -0.39000
O574        O  0.68227240  0.79489812  0.67343946    -0.38900
O575        O  0.76432607  0.59314244  0.69603755    -0.39700
O576        O  0.67653339  0.56529101  0.71277955    -0.39700
C577        C  0.74489477  0.76596573  0.34905450    -0.12000
C578        C  0.70652381  0.70936964  0.34898810     0.05000
C579        C  0.70455002  0.67837330  0.32002791    -0.07300
C580        C  0.73782651  0.70570171  0.29102206    -0.08000
C581        C  0.76566341  0.76382431  0.28779136    -0.02600
C582        C  0.77401687  0.79392011  0.31965721     0.04200
N583        N  0.81013669  0.85269008  0.32408448     0.66700
H584        H  0.74953423  0.79018723  0.37182587     0.15600
H585        H  0.73743264  0.68081847  0.26978180     0.15400
N586        N  0.66830859  0.61958415  0.31914068     0.74400
O587        O  0.78527579  0.88036714  0.32702685    -0.39000
O588        O  0.85749844  0.87042791  0.34015782    -0.38900
O589        O  0.61780423  0.59861890  0.30670722    -0.39700
O590        O  0.69107399  0.58995295  0.32185740    -0.39700
C591        C  0.69346191  0.71702675  0.21989444    -0.12000
C592        C  0.74955701  0.76482087  0.21893596     0.05000
C593        C  0.76768382  0.79120845  0.18620959    -0.07300
C594        C  0.73277879  0.76855562  0.15691798    -0.08000
C595        C  0.67825327  0.72078082  0.15828103    -0.02600
C596        C  0.65841499  0.69506886  0.19032417     0.04200
N597        N  0.60250905  0.64676004  0.19367751     0.66700
H598        H  0.67356037  0.69767381  0.24364383     0.15600
H599        H  0.74829638  0.78996503  0.13276003     0.15400
N600        N  0.82090922  0.84242599  0.18194706     0.74400
O601        O  0.59855395  0.60008352  0.19556087    -0.39000
O602        O  0.56113960  0.65193598  0.20408294    -0.38900
O603        O  0.86374287  0.84149668  0.16972079    -0.39700
O604        O  0.81875366  0.88609132  0.17872667    -0.39700
C605        C  0.74206623  0.89979365  0.26304741    -0.12000
C606        C  0.79154282  0.95139577  0.25631371     0.05000
C607        C  0.84441962  0.95033756  0.25819067    -0.07300
C608        C  0.84357314  0.90023321  0.25248379    -0.08000
C609        C  0.79165698  0.84860540  0.25330883    -0.02600
C610        C  0.73987268  0.84981719  0.25846034     0.04200
N611        N  0.68363770  0.80089819  0.25860281     0.66700
H612        H  0.70284049  0.89721192  0.27223913     0.15600
H613        H  0.88464142  0.90245446  0.25012015     0.15400
N614        N  0.89490672  0.99257182  0.27573410     0.74400
O615        O  0.64870642  0.79353921  0.23440934    -0.39000
O616        O  0.66384621  0.77468844  0.28614324    -0.38900
O617        O  0.89194071  0.99827457  0.30760230    -0.39700
O618        O  0.94396958  0.00745799  0.26345072    -0.39700
C619        C  0.73486046  0.01681569  0.15427922    -0.12000
C620        C  0.68654109  0.96449078  0.14930244     0.05000
C621        C  0.66951504  0.92639149  0.17590089    -0.07300
C622        C  0.69876182  0.94197089  0.20707595    -0.08000
C623        C  0.74901743  0.99381032  0.21393838    -0.02600
C624        C  0.76661881  0.03229260  0.18536866     0.04200
N625        N  0.81542369  0.08740590  0.18583315     0.66700
H626        H  0.74825814  0.04677780  0.13364048     0.15600
H627        H  0.67718122  0.91033811  0.22693597     0.15400
N628        N  0.62390088  0.87029039  0.17121459     0.74400
O629        O  0.80643129  0.12685788  0.19053576    -0.39000
O630        O  0.85864300  0.09687290  0.16816814    -0.38900
O631        O  0.63598912  0.83532292  0.15983846    -0.39700
O632        O  0.57631297  0.85352066  0.18607288    -0.39700
C633        C  0.65795168  0.96883806  0.31516251    -0.12000
C634        C  0.68595482  0.96848998  0.34561566     0.05000
C635        C  0.74614918  0.99076982  0.34519175    -0.07300
C636        C  0.77547401  0.00756201  0.31417898    -0.08000
C637        C  0.74686564  0.00112025  0.28232001    -0.02600
C638        C  0.68712701  0.98583301  0.28382832     0.04200
N639        N  0.65442405  0.98810744  0.25525669     0.66700
H640        H  0.61226316  0.95537396  0.31550939     0.15600
H641        H  0.82139326  0.02368448  0.31484030     0.15400
N642        N  0.77821550  0.99438173  0.37557438     0.74400
O643        O  0.61040513  0.94354776  0.24541016    -0.39000
O644        O  0.65383918  0.03228560  0.25068567    -0.38900
O645        O  0.79218983  0.95832960  0.38088634    -0.39700
O646        O  0.80420600  0.03953487  0.39194689    -0.39700
C647        C  0.89802844  0.15981045  0.25807759    -0.12000
C648        C  0.94875252  0.16309939  0.24546673     0.05000
C649        C  0.94139067  0.11340084  0.23003271    -0.07300
C650        C  0.88712857  0.06453096  0.23072901    -0.08000
C651        C  0.83994782  0.05964161  0.24909696    -0.02600
C652        C  0.84561641  0.10996773  0.26136224     0.04200
N653        N  0.79741287  0.11315896  0.27382725     0.66700
H654        H  0.89904323  0.19689577  0.26635019     0.15600
H655        H  0.88164504  0.02970706  0.21575206     0.15400
N656        N  0.98556082  0.11104079  0.21085676     0.74400
O657        O  0.79782178  0.12796249  0.30443282    -0.39000
O658        O  0.76172657  0.11362013  0.25276122    -0.38900
O659        O  0.01944813  0.09944951  0.22642330    -0.39700
O660        O  0.97701126  0.09989615  0.17920687    -0.39700
C661        C  0.07498838  0.34778502  0.30749392    -0.12000
C662        C  0.04480662  0.32348623  0.33746405     0.05000
C663        C  0.00247080  0.26713731  0.33672819    -0.07300
C664        C  0.99116082  0.23672193  0.30644344    -0.08000
C665        C  0.01886955  0.26048496  0.27501967    -0.02600
C666        C  0.06329408  0.31863849  0.27630528     0.04200
N667        N  0.09371140  0.35185587  0.24681196     0.66700
H668        H  0.10861643  0.39102739  0.30824598     0.15600
H669        H  0.96207381  0.19279153  0.30890456     0.15400
N670        N  0.97086681  0.23909903  0.36663484     0.74400
O671        O  0.10963891  0.40265684  0.24630088    -0.39000
O672        O  0.10931009  0.33323658  0.22255555    -0.38900
O673        O  0.91902762  0.22748757  0.36912965    -0.39700
O674        O  0.98827986  0.21300417  0.38470529    -0.39700
C675        C  0.98232817  0.22413329  0.17796455    -0.12000
C676        C  0.98949837  0.24824608  0.21066972     0.05000
C677        C  0.98349990  0.29601855  0.21150664    -0.07300
C678        C  0.99557301  0.32839573  0.18184581    -0.08000
C679        C  0.00481633  0.31012069  0.15039617    -0.02600
C680        C  0.99219227  0.25496930  0.14804988     0.04200
N681        N  0.99522068  0.23121058  0.11631276     0.66700
H682        H  0.97799136  0.18430108  0.17535097     0.15600
H683        H  0.99695801  0.36759467  0.18333130     0.15400
N684        N  0.95938989  0.30902812  0.24015428     0.74400
O685        O  0.04292713  0.23657399  0.10752297    -0.39000
O686        O  0.94905582  0.19347224  0.10261880    -0.38900
O687        O  0.98594257  0.35737969  0.25257523    -0.39700
O688        O  0.90543231  0.28029907  0.24437337    -0.39700
C689        C  0.13472825  0.20106740  0.26329505    -0.12000
C690        C  0.16984820  0.22071559  0.23395060     0.05000
C691        C  0.14704811  0.23863661  0.20639056    -0.07300
C692        C  0.09268938  0.23353109  0.20884069    -0.08000
C693        C  0.05938236  0.21679310  0.23867877    -0.02600
C694        C  0.08112422  0.19809411  0.26592413     0.04200
N695        N  0.04930765  0.17404575  0.29651027     0.66700
H696        H  0.14944685  0.18758342  0.28522200     0.15600
H697        H  0.08080553  0.24943303  0.18728116     0.15400
N698        N  0.17765413  0.26634525  0.17609324     0.74400
O699        O  0.01421027  0.12255969  0.29695479    -0.39000
O700        O  0.07040770  0.19869918  0.32467795    -0.38900
O701        O  0.15764549  0.24211702  0.14764440    -0.39700
O702        O  0.20573672  0.31853528  0.17625597    -0.39700
C703        C  0.31980890  0.30722448  0.20750943    -0.12000
C704        C  0.26855971  0.25484150  0.20443107     0.05000
C705        C  0.25443643  0.23074945  0.17051555    -0.07300
C706        C  0.28035319  0.26565588  0.14227245    -0.08000
C707        C  0.31892128  0.32224259  0.14665296    -0.02600
C708        C  0.34363732  0.34161118  0.17923255     0.04200
N709        N  0.39156407  0.39640849  0.18439595     0.66700
H710        H  0.34036500  0.32389352  0.23203940     0.15600
H711        H  0.26483688  0.24965080  0.11665559     0.15400
N712        N  0.20967909  0.17440365  0.16286323     0.74400
O713        O  0.38270607  0.43359763  0.19558520    -0.39000
O714        O  0.44202674  0.40384455  0.18606030    -0.38900
O715        O  0.16304376  0.15087185  0.17923417    -0.39700
O716        O  0.21098922  0.15307909  0.13462099    -0.39700
C717        C  0.28960341  0.34456607  0.30628561    -0.12000
C718        C  0.30377175  0.32210390  0.33405623     0.05000
C719        C  0.29509026  0.26851457  0.33058149    -0.07300
C720        C  0.27360507  0.23929555  0.29958481    -0.08000
C721        C  0.25938918  0.26150278  0.27080345    -0.02600
C722        C  0.26532889  0.31460687  0.27594107     0.04200
N723        N  0.24043728  0.33643564  0.25285221     0.66700
H724        H  0.29317034  0.38463292  0.30897871     0.15600
H725        H  0.26615085  0.19776444  0.29942947     0.15400
N726        N  0.30650356  0.24215243  0.35840571     0.74400
O727        O  0.19485150  0.33505609  0.26211875    -0.39000
O728        O  0.27269439  0.37302542  0.23180599    -0.38900
O729        O  0.26455891  0.20604982  0.37547564    -0.39700
O730        O  0.35415916  0.24338925  0.35957166    -0.39700
C731        C  0.27873701  0.11543661  0.24371180    -0.12000
C732        C  0.22607236  0.06540329  0.24772680     0.05000
C733        C  0.17586368  0.06948103  0.25238434    -0.07300
C734        C  0.17769269  0.11942022  0.24579633    -0.08000
C735        C  0.22991788  0.16955452  0.24003241    -0.02600
C736        C  0.28152479  0.16642020  0.24008968     0.04200
N737        N  0.33777735  0.21430688  0.23629980     0.66700
H738        H  0.31868754  0.11479208  0.24220696     0.15600
H739        H  0.13691994  0.11786866  0.24681688     0.15400
N740        N  0.12572387  0.02765605  0.26955463     0.74400
O741        O  0.36922846  0.23519656  0.26269032    -0.39000
O742        O  0.36188637  0.22326923  0.20749347    -0.38900
O743        O  0.07627657  0.00988137  0.25615970    -0.39700
O744        O  0.12928864  0.02252529  0.30150427    -0.39700
C745        C  0.29385231  0.94819410  0.30769611    -0.12000
C746        C  0.30429116  0.97961629  0.33742371     0.05000
C747        C  0.29758357  0.02630518  0.33598450    -0.07300
C748        C  0.27812415  0.03895325  0.30551064    -0.08000
C749        C  0.26292887  0.00488021  0.27584188    -0.02600
C750        C  0.27209144  0.95859360  0.27774720     0.04200
N751        N  0.25689957  0.91934344  0.25026697     0.66700
H752        H  0.29867353  0.91212671  0.30826746     0.15600
H753        H  0.27117020  0.07359107  0.30648179     0.15400
N754        N  0.30921250  0.06101218  0.36533257     0.74400
O755        O  0.29586288  0.91226954  0.23779409    -0.39000
O756        O  0.20513353  0.88092415  0.24671309    -0.38900
O757        O  0.35675315  0.10614608  0.36738070    -0.39700
O758        O  0.26754799  0.05425677  0.38354795    -0.39700
C759        C  0.31483298  0.01779620  0.21077412    -0.12000
C760        C  0.25961104  0.01332130  0.21045705     0.05000
C761        C  0.24041358  0.01747335  0.17700892    -0.07300
C762        C  0.25663273  0.99754547  0.14881166    -0.08000
C763        C  0.30264310  0.98769317  0.15142353    -0.02600
C764        C  0.33560518  0.00360500  0.18203171     0.04200
N765        N  0.39072098  0.00732789  0.18431463     0.66700
H766        H  0.34170549  0.03000278  0.23365121     0.15600
H767        H  0.23754229  0.99581015  0.12386967     0.15400
N768        N  0.22560500  0.05867484  0.16933378     0.74400
O769        O  0.43593698  0.05438778  0.18673349    -0.39000
O770        O  0.39328936  0.96495873  0.19197725    -0.38900
O771        O  0.26532752  0.10846334  0.17283653    -0.39700
O772        O  0.18711335  0.04808094  0.14683268    -0.39700
C773        C  0.06742089  0.88504068  0.22760200    -0.12000
C774        C  0.06233888  0.84884887  0.25417795     0.05000
C775        C  0.10202946  0.87357842  0.28211351    -0.07300
C776        C  0.14717654  0.92833867  0.27952509    -0.08000
C777        C  0.16381797  0.95748710  0.24785116    -0.02600
C778        C  0.11854852  0.93583651  0.22246016     0.04200
N779        N  0.12085498  0.96273825  0.19116732     0.66700
H780        H  0.03437278  0.87016730  0.20760784     0.15600
H781        H  0.17167152  0.94602885  0.30291775     0.15400
N782        N  0.09823973  0.84648351  0.31392405     0.74400
O783        O  0.09944038  0.99366332  0.19050761    -0.39000
O784        O  0.12004672  0.93847952  0.16368935    -0.38900
O785        O  0.13540458  0.83261201  0.31996479    -0.39700
O786        O  0.07688604  0.85735840  0.33929106    -0.39700
C787        C  0.91385179  0.76563081  0.22266536    -0.12000
C788        C  0.95511486  0.78983280  0.24956093     0.05000
C789        C  0.94268821  0.81983865  0.27432922    -0.07300
C790        C  0.89157749  0.82149670  0.27226996    -0.08000
C791        C  0.84786755  0.79268525  0.24767696    -0.02600
C792        C  0.85929028  0.76121613  0.22345063     0.04200
N793        N  0.81544532  0.71948873  0.20173756     0.66700
H794        H  0.92134220  0.74699115  0.20083686     0.15600
H795        H  0.88617495  0.84587254  0.29109645     0.15400
N796        N  0.98113396  0.85061228  0.30195239     0.74400
O797        O  0.82182525  0.72357706  0.16963471    -0.39000
O798        O  0.78227029  0.67235071  0.21424123    -0.38900
O799        O  0.01262919  0.90231734  0.29847182    -0.39700
O800        O  0.96641906  0.83200861  0.33191744    -0.39700
C801        C  0.07084057  0.79251251  0.19562227    -0.12000
C802        C  0.02056655  0.76168582  0.21585659     0.05000
C803        C  0.98247874  0.70523794  0.20536390    -0.07300
C804        C  0.99249684  0.68501788  0.17468876    -0.08000
C805        C  0.04069631  0.71842193  0.15458081    -0.02600
C806        C  0.08005651  0.77235405  0.16533952     0.04200
N807        N  0.13215212  0.80647212  0.14689188     0.66700
H808        H  0.10695433  0.83153274  0.20388130     0.15600
H809        H  0.96348549  0.64231857  0.16717459     0.15400
N810        N  0.93562083  0.66666421  0.22629502     0.74400
O811        O  0.13491594  0.84377246  0.12755756    -0.39000
O812        O  0.17841854  0.80886883  0.15655134    -0.38900
O813        O  0.88449194  0.64573949  0.21486344    -0.39700
O814        O  0.94572446  0.64050194  0.24897855    -0.39700
C815        C  0.97544825  0.73272626  0.30714433    -0.12000
C816        C  0.01512063  0.75046262  0.27978404     0.05000
C817        C  0.05757813  0.73362241  0.28125906    -0.07300
C818        C  0.06346811  0.70837715  0.31048383    -0.08000
C819        C  0.02969320  0.69918098  0.33931124    -0.02600
C820        C  0.98372257  0.70968657  0.33713490     0.04200
N821        N  0.94515132  0.69782450  0.36502563     0.66700
H822        H  0.93831462  0.73781369  0.30632988     0.15600
H823        H  0.09730858  0.69806573  0.31087946     0.15400
N824        N  0.09461497  0.73929273  0.25350663     0.74400
O825        O  0.95569325  0.73565581  0.38640236    -0.39000
O826        O  0.89457401  0.65642739  0.36288874    -0.38900
O827        O  0.14817182  0.77263948  0.25709118    -0.39700
O828        O  0.07883150  0.69796101  0.23406181    -0.39700
loop_ 
_geom_bond_atom_site_label_1 
_geom_bond_atom_site_label_2 
_geom_bond_distance 
_geom_bond_site_symmetry_2 
_ccdc_geom_bond_type 
C1          C774   1.566       .  S
C1          C788   1.588   1_455  S
C1          C802   1.583       .  S
C1          C816   1.565       .  S
C2          C732   1.562       .  S
C2          C749   1.584       .  S
C2          C760   1.593       .  S
C2          C777   1.596   1_545  S
C3          C690   1.589       .  S
C3          C704   1.559       .  S
C3          C721   1.586       .  S
C3          C735   1.577       .  S
C4          C648   1.571   1_455  S
C4          C665   1.578       .  S
C4          C676   1.579   1_455  S
C4          C693   1.576       .  S
C5          C606   1.607   1_545  S
C5          C623   1.600   1_545  S
C5          C637   1.573       .  S
C5          C651   1.561       .  S
C6          C581   1.583       .  S
C6          C592   1.577       .  S
C6          C609   1.559       .  S
C6          C791   1.577       .  S
In7           O9   2.247       .  S
In7          O10   2.254       .  S
In7          O18   2.277       .  S
In7          O12   2.240       .  S
In7          O14   2.247       .  S
In7          O15   2.246       .  S
In7          O16   2.253       .  S
In7          O19   2.251       .  S
C8           O14   1.259       .  A
C8           O16   1.258       .  A
C8           C21   1.463       .  S
O9           C17   1.259       .  A
O10          C17   1.261       .  A
C11          O18   1.261       .  A
C11          O12   1.260       .  A
C11         C718   1.486       .  S
C13          O15   1.259       .  A
C13          O19   1.261       .  A
C13          C52   1.464       .  S
C17          C69   1.466       .  S
In20         O22   2.261       .  S
In20         O23   2.263       .  S
In20         O31   2.233       .  S
In20         O25   2.277       .  S
In20         O27   2.240       .  S
In20         O28   2.267       .  S
In20         O29   2.255       .  S
In20         O32   2.287       .  S
C21          O27   1.258       .  A
C21          O29   1.261       .  A
O22          C30   1.258       .  A
O23          C30   1.258       .  A
C24          O31   1.263       .  A
C24          O25   1.260       .  A
C24         C578   1.481       .  S
C26          O28   1.260       .  A
C26          O32   1.262       .  A
C26         C147   1.484       .  S
C30          C43   1.470       .  S
In33         O35   2.258       .  S
In33         O36   2.253       .  S
In33         O44   2.237       .  S
In33         O38   2.259       .  S
In33         O40   2.251       .  S
In33         O41   2.244       .  S
In33         O42   2.250       .  S
In33         O45   2.250       .  S
C34          O40   1.259       .  A
C34          O42   1.259       .  A
C34          C47   1.465       .  S
O35          C43   1.261       .  A
O36          C43   1.261       .  A
C37          O44   1.261       .  A
C37          O38   1.259       .  A
C37         C564   1.478       .  S
C39          O41   1.260       .  A
C39          O45   1.259       .  A
C39          C95   1.464       .  S
In46         O48   2.251       .  S
In46         O49   2.243       .  S
In46         O57   2.265       .  S
In46         O51   2.247       .  S
In46         O53   2.248       .  S
In46         O54   2.249       .  S
In46         O55   2.252       .  S
In46         O58   2.250       .  S
C47          O53   1.260       .  A
C47          O55   1.260       .  A
O48          C56   1.261       .  A
O49          C56   1.259       .  A
C50          O57   1.261       .  A
C50          O51   1.261       .  A
C50         C550   1.487       .  S
C52          O54   1.258       .  A
C52          O58   1.260       .  A
C56         C121   1.464       .  S
In59         O61   2.252       .  S
In59         O62   2.249       .  S
In59         O70   2.232       .  S
In59         O64   2.257       .  S
In59         O66   2.239       .  S
In59         O67   2.263       .  S
In59         O68   2.244       .  S
In59         O71   2.257       .  S
C60          O66   1.260       .  A
C60          O68   1.262       .  A
C60          C82   1.462   1_455  S
O61          C69   1.260       .  A
O62          C69   1.260       .  A
C63          O70   1.262       .  A
C63          O64   1.260       .  A
C63         C662   1.483       .  S
C65          O67   1.261       .  A
C65          O71   1.260       .  A
C65          C99   1.473       .  S
In72         O74   2.243   1_655  S
In72         O75   2.242       .  S
In72         O83   2.256       .  S
In72         O77   2.222       .  S
In72         O79   2.247       .  S
In72         O80   2.251       .  S
In72         O81   2.249       .  S
In72         O84   2.239       .  S
C73          O79   1.260       .  A
C73          O81   1.260       .  A
C73          C86   1.464       .  S
O74          C82   1.260   1_455  A
O75          C82   1.261       .  A
C76          O83   1.261       .  A
C76          O77   1.261       .  A
C76         C536   1.480       .  S
C78          O80   1.260       .  A
C78          O84   1.260       .  A
C78         C160   1.463       .  S
In85         O87   2.255       .  S
In85         O88   2.240       .  S
In85         O96   2.224       .  S
In85         O90   2.259       .  S
In85         O92   2.245       .  S
In85         O93   2.236       .  S
In85         O94   2.248       .  S
In85         O97   2.246   1_655  S
C86          O92   1.260       .  A
C86          O94   1.260       .  A
O87          C95   1.262       .  A
O88          C95   1.259       .  A
C89          O96   1.260       .  A
C89          O90   1.261       .  A
C89         C525   1.469       .  S
C91          O93   1.257       .  A
C91          O97   1.259   1_655  A
C91         C104   1.457   1_655  S
In98        O100   2.253       .  S
In98        O101   2.262       .  S
In98        O109   2.270       .  S
In98        O103   2.212       .  S
In98        O105   2.257       .  S
In98        O106   2.240       .  S
In98        O107   2.266       .  S
In98        O110   2.232       .  S
C99         O105   1.259       .  A
C99         O107   1.261       .  A
O100        C108   1.260       .  A
O101        C108   1.260       .  A
C102        O109   1.261       .  A
C102        O103   1.262       .  A
C102        C819   1.481       .  S
C104        O106   1.260       .  A
C104        O110   1.260       .  A
C108        C130   1.471       .  S
In111       O113   2.244       .  S
In111       O114   2.248       .  S
In111       O122   2.243       .  S
In111       O116   2.240       .  S
In111       O118   2.249       .  S
In111       O119   2.240       .  S
In111       O120   2.243       .  S
In111       O123   2.237       .  S
C112        O118   1.260       .  A
C112        O120   1.260       .  A
C112        C134   1.463   1_545  S
O113        C121   1.260       .  A
O114        C121   1.260       .  A
C115        O122   1.262       .  A
C115        O116   1.262       .  A
C115        C511   1.487       .  S
C117        O119   1.260       .  A
C117        O123   1.260       .  A
C117        C151   1.458       .  S
In124       O126   2.244       .  S
In124       O127   2.252       .  S
In124       O135   2.284       .  S
In124       O129   2.245       .  S
In124       O131   2.258       .  S
In124       O132   2.267       .  S
In124       O133   2.271       .  S
In124       O136   2.253       .  S
C125        O131   1.260       .  A
C125        O133   1.259       .  A
C125        C138   1.473       .  S
O126        C134   1.259       .  A
O127        C134   1.260       .  A
C128        O135   1.260       .  A
C128        O129   1.261       .  A
C128        C746   1.489       .  S
C130        O132   1.261       .  A
C130        O136   1.258       .  A
In137       O139   2.286       .  S
In137       O140   2.269       .  S
In137       O148   2.257       .  S
In137       O142   2.233       .  S
In137       O144   2.248       .  S
In137       O145   2.268       .  S
In137       O146   2.277       .  S
In137       O149   2.250       .  S
C138        O144   1.257       .  A
C138        O146   1.263       .  A
O139        C147   1.261       .  A
O140        C147   1.260       .  A
C141        O148   1.262       .  A
C141        O142   1.262       .  A
C141        C634   1.484       .  S
C143        O145   1.262       .  A
C143        O149   1.258       .  A
C143        C156   1.472   1_565  S
In150       O152   2.238       .  S
In150       O153   2.255       .  S
In150       O161   2.224       .  S
In150       O155   2.269       .  S
In150       O157   2.237       .  S
In150       O158   2.258       .  S
In150       O159   2.240       .  S
In150       O162   2.264   1_545  S
C151        O157   1.259       .  A
C151        O159   1.260       .  A
O152        C160   1.258       .  A
O153        C160   1.261       .  A
C154        O161   1.261       .  A
C154        O155   1.259       .  A
C154        C494   1.481       .  S
C156        O158   1.261       .  A
C156        O162   1.259   1_545  A
C163        C452   1.569       .  S
C163        C466   1.579   1_545  S
C163        C483   1.579   1_545  S
C163        C497   1.580       .  S
C164        C424   1.580       .  S
C164        C438   1.592       .  S
C164        C469   1.579       .  S
C164        C567   1.578       .  S
C165        C399   1.565   1_655  S
C165        C410   1.562   1_655  S
C165        C455   1.558       .  S
C165        C539   1.583       .  S
C166        C371   1.592       .  S
C166        C382   1.582       .  S
C166        C396   1.557       .  S
C166        C553   1.586       .  S
C167        C340   1.585   1_655  S
C167        C354   1.570       .  S
C167        C427   1.572       .  S
C167        C522   1.575       .  S
C168        C329   1.572       .  S
C168        C343   1.580   1_545  S
C168        C368   1.576       .  S
C168        C508   1.593       .  S
In169       O171   2.251       .  S
In169       O172   2.258       .  S
In169       O180   2.241       .  S
In169       O174   2.264       .  S
In169       O176   2.242       .  S
In169       O177   2.264       .  S
In169       O178   2.256       .  S
In169       O181   2.256       .  S
C170        O176   1.260       .  A
C170        O178   1.260       .  A
C170        C183   1.464       .  S
O171        C179   1.258       .  A
O172        C179   1.258       .  A
C173        O180   1.261       .  A
C173        O174   1.261       .  A
C173        C441   1.487       .  S
C175        O177   1.259       .  A
C175        O181   1.259       .  A
C175        C214   1.470   1_556  S
C179        C309   1.464       .  S
In182       O184   2.244       .  S
In182       O185   2.247       .  S
In182       O193   2.224       .  S
In182       O187   2.235       .  S
In182       O189   2.235       .  S
In182       O190   2.272       .  S
In182       O191   2.256       .  S
In182       O194   2.274       .  S
C183        O189   1.258       .  A
C183        O191   1.262       .  A
O184        C192   1.258       .  A
O185        C192   1.262       .  A
C186        O193   1.261       .  A
C186        O187   1.260       .  A
C186        C385   1.459       .  S
C188        O190   1.259       .  A
C188        O194   1.260       .  A
C188        C270   1.479       .  S
C192        C205   1.462   1_556  S
In195       O197   2.241       .  S
In195       O198   2.259       .  S
In195       O206   2.226       .  S
In195       O200   2.242       .  S
In195       O202   2.229       .  S
In195       O203   2.261       .  S
In195       O204   2.258       .  S
In195       O207   2.270       .  S
C196        O202   1.256       .  A
C196        O204   1.261       .  A
C196        C209   1.460       .  S
O197        C205   1.256       .  A
O198        C205   1.261       .  A
C199        O206   1.262       .  A
C199        O200   1.261       .  A
C199        C707   1.477       .  S
C201        O203   1.259       .  A
C201        O207   1.259       .  A
C201        C322   1.473       .  S
In208       O210   2.254       .  S
In208       O211   2.255       .  S
In208       O219   2.244       .  S
In208       O213   2.277       .  S
In208       O215   2.231       .  S
In208       O216   2.253       .  S
In208       O217   2.253       .  S
In208       O220   2.266       .  S
C209        O215   1.259       .  A
C209        O217   1.260       .  A
O210        C218   1.261       .  A
O211        C218   1.259       .  A
C212        O219   1.263       .  A
C212        O213   1.261       .  A
C212        C595   1.490       .  S
C214        O216   1.258       .  A
C214        O220   1.260       .  A
C218        C257   1.469       .  S
In221       O223   2.257       .  S
In221       O224   2.258       .  S
In221       O232   2.210       .  S
In221       O226   2.271       .  S
In221       O228   2.234       .  S
In221       O229   2.257       .  S
In221       O230   2.251       .  S
In221       O233   2.276       .  S
C222        O228   1.258       .  A
C222        O230   1.260       .  A
C222        C261   1.459       .  S
O223        C231   1.257       .  A
O224        C231   1.259       .  A
C225        O232   1.262       .  A
C225        O226   1.261       .  A
C225        C480   1.481       .  S
C227        O229   1.257       .  A
C227        O233   1.260       .  A
C227        C296   1.473       .  S
C231        C248   1.467   1_546  S
In234       O236   2.263       .  S
In234       O237   2.248       .  S
In234       O245   2.236       .  S
In234       O239   2.251       .  S
In234       O241   2.248       .  S
In234       O242   2.246       .  S
In234       O243   2.240       .  S
In234       O246   2.252   1_565  S
C235        O241   1.259       .  A
C235        O243   1.258       .  A
C235        C253   1.460       .  S
O236        C244   1.260       .  A
O237        C244   1.259       .  A
C238        O245   1.262       .  A
C238        O239   1.261       .  A
C238        C763   1.481       .  S
C240        O242   1.258       .  A
C240        O246   1.258   1_565  A
C240        C266   1.462   1_564  S
C244        C279   1.469       .  S
In247       O249   2.259       .  S
In247       O250   2.245       .  S
In247       O258   2.219       .  S
In247       O252   2.258       .  S
In247       O254   2.247   1_565  S
In247       O255   2.240       .  S
In247       O256   2.253       .  S
In247       O259   2.245       .  S
C248        O254   1.259   1_565  A
C248        O256   1.262       .  A
O249        C257   1.263       .  A
O250        C257   1.259       .  A
C251        O258   1.259       .  A
C251        O252   1.262       .  A
C251        C620   1.473       .  S
C253        O255   1.260       .  A
C253        O259   1.260       .  A
In260       O262   2.273       .  S
In260       O263   2.274       .  S
In260       O271   2.248       .  S
In260       O265   2.256       .  S
In260       O267   2.236       .  S
In260       O268   2.250       .  S
In260       O269   2.249       .  S
In260       O272   2.245       .  S
C261        O267   1.258       .  A
C261        O269   1.259       .  A
O262        C270   1.259       .  A
O263        C270   1.259       .  A
C264        O271   1.262       .  A
C264        O265   1.259       .  A
C264        C326   1.474       .  S
C266        O268   1.259       .  A
C266        O272   1.259       .  A
In273       O275   2.253       .  S
In273       O276   2.254       .  S
In273       O284   2.246       .  S
In273       O278   2.246       .  S
In273       O280   2.251       .  S
In273       O281   2.249       .  S
In273       O282   2.263       .  S
In273       O285   2.266       .  S
C274        O280   1.260       .  A
C274        O282   1.262       .  A
C274        C313   1.472       .  S
O275        C283   1.261       .  A
O276        C283   1.261       .  A
C277        O284   1.259       .  A
C277        O278   1.260       .  A
C277        C805   1.466       .  S
C279        O281   1.259       .  A
C279        O285   1.261       .  A
C283        C300   1.470   1_454  S
In286       O288   2.269       .  S
In286       O289   2.254       .  S
In286       O297   2.221       .  S
In286       O291   2.260       .  S
In286       O293   2.229       .  S
In286       O294   2.253       .  S
In286       O295   2.245       .  S
In286       O298   2.246   1_655  S
C287        O293   1.257       .  A
C287        O295   1.260       .  A
C287        C305   1.455       .  S
O288        C296   1.261       .  A
O289        C296   1.259       .  A
C290        O297   1.262       .  A
C290        O291   1.262       .  A
C290        C413   1.479       .  S
C292        O294   1.260       .  A
C292        O298   1.258   1_655  A
C292        C318   1.464   1_656  S
In299       O301   2.254       .  S
In299       O302   2.238       .  S
In299       O310   2.240       .  S
In299       O304   2.244       .  S
In299       O306   2.256   1_655  S
In299       O307   2.242       .  S
In299       O308   2.256       .  S
In299       O311   2.231       .  S
C300        O306   1.260   1_655  A
C300        O308   1.260       .  A
O301        C309   1.262       .  A
O302        C309   1.259       .  A
C303        O310   1.258       .  A
C303        O304   1.262       .  A
C303        C357   1.477       .  S
C305        O307   1.259       .  A
C305        O311   1.258       .  A
In312       O314   2.267       .  S
In312       O315   2.252       .  S
In312       O323   2.251       .  S
In312       O317   2.253       .  S
In312       O319   2.257       .  S
In312       O320   2.247       .  S
In312       O321   2.265       .  S
In312       O324   2.252   1_455  S
C313        O319   1.260       .  A
C313        O321   1.260       .  A
O314        C322   1.262       .  A
O315        C322   1.259       .  A
C316        O323   1.259       .  A
C316        O317   1.262       .  A
C316        C679   1.484       .  S
C318        O320   1.259       .  A
C318        O324   1.259   1_455  A
C325        C326   1.404   1_565  A
C325        C330   1.414       .  A
C325        H332   1.083       .  S
C326        C327   1.397       .  A
C327        C328   1.392       .  A
C327        N334   1.432       .  S
C328        C329   1.421       .  A
C328        H333   1.082       .  S
C329        C330   1.424   1_545  A
C330        N331   1.431       .  S
N331        O335   1.260       .  A
N331        O336   1.255       .  A
N334        O338   1.262       .  A
N334        O337   1.259       .  A
C339        C340   1.409       .  A
C339        C344   1.404       .  A
C339        H346   1.073       .  S
C340        C341   1.433       .  A
C341        C342   1.403       .  A
C341        N348   1.428       .  S
C342        C343   1.412       .  A
C342        H347   1.076       .  S
C343        C344   1.430       .  A
C344        N345   1.430       .  S
N345        O349   1.261       .  A
N345        O350   1.262       .  A
N348        O352   1.263       .  A
N348        O351   1.262       .  A
C353        C354   1.419       .  A
C353        C358   1.393       .  A
C353        H360   1.075       .  S
C354        C355   1.421   1_655  A
C355        C356   1.404       .  A
C355        N362   1.417       .  S
C356        C357   1.398   1_455  A
C356        H361   1.084       .  S
C357        C358   1.405       .  A
C358        N359   1.429       .  S
N359        O363   1.262       .  A
N359        O364   1.262       .  A
N362        O366   1.261       .  A
N362        O365   1.263       .  A
C367        C368   1.400       .  A
C367        C372   1.383       .  A
C367        H374   1.062       .  S
C368        C369   1.425       .  A
C369        C370   1.421       .  A
C369        N376   1.434       .  S
C370        C371   1.427       .  A
C370        H375   1.080       .  S
C371        C372   1.430       .  A
C372        N373   1.442       .  S
N373        O377   1.264       .  A
N373        O378   1.255       .  A
N376        O380   1.261       .  A
N376        O379   1.261       .  A
C381        C382   1.421       .  A
C381        C386   1.386       .  A
C381        H388   1.080       .  S
C382        C383   1.437       .  A
C383        C384   1.409       .  A
C383        N390   1.429       .  S
C384        C385   1.391       .  A
C384        H389   1.084       .  S
C385        C386   1.389       .  A
C386        N387   1.424       .  S
N387        O391   1.262       .  A
N387        O392   1.262       .  A
N390        O394   1.261       .  A
N390        O393   1.260       .  A
C395        C396   1.415       .  A
C395        C400   1.398       .  A
C395        H402   1.082       .  S
C396        C397   1.423       .  A
C397        C398   1.398       .  A
C397        N404   1.434       .  S
C398        C399   1.413       .  A
C398        H403   1.080       .  S
C399        C400   1.421       .  A
C400        N401   1.434       .  S
N401        O405   1.262       .  A
N401        O406   1.262       .  A
N404        O408   1.262       .  A
N404        O407   1.261       .  A
C409        C410   1.414       .  A
C409        C414   1.403   1_455  A
C409        H416   1.079       .  S
C410        C411   1.435       .  A
C411        C412   1.395       .  A
C411        N418   1.429       .  S
C412        C413   1.394   1_455  A
C412        H417   1.084       .  S
C413        C414   1.407       .  A
C414        N415   1.429       .  S
N415        O419   1.262   1_655  A
N415        O420   1.261       .  A
N418        O422   1.261       .  A
N418        O421   1.261       .  A
C423        C424   1.406       .  A
C423        C428   1.388       .  A
C423        H430   1.071       .  S
C424        C425   1.441       .  A
C425        C426   1.408       .  A
C425        N432   1.432       .  S
C426        C427   1.406       .  A
C426        H431   1.084       .  S
C427        C428   1.428       .  A
C428        N429   1.435       .  S
N429        O433   1.262       .  A
N429        O434   1.262       .  A
N432        O436   1.261       .  A
N432        O435   1.262       .  A
C437        C438   1.421       .  A
C437        C442   1.403       .  A
C437        H444   1.079       .  S
C438        C439   1.425       .  A
C439        C440   1.401       .  A
C439        N446   1.418       .  S
C440        C441   1.397       .  A
C440        H445   1.084       .  S
C441        C442   1.408       .  A
C442        N443   1.428       .  S
N443        O447   1.262       .  A
N443        O448   1.262       .  A
N446        O450   1.262       .  A
N446        O449   1.258       .  A
C451        C452   1.415       .  A
C451        C456   1.389       .  A
C451        H458   1.077       .  S
C452        C453   1.426       .  A
C453        C454   1.396       .  A
C453        N460   1.432       .  S
C454        C455   1.414       .  A
C454        H459   1.083       .  S
C455        C456   1.426       .  A
C456        N457   1.435       .  S
N457        O461   1.260       .  A
N457        O462   1.262       .  A
N460        O464   1.262       .  A
N460        O463   1.261       .  A
C465        C466   1.423       .  A
C465        C470   1.414       .  A
C465        H472   1.083       .  S
C466        C467   1.433       .  A
C467        C468   1.405       .  A
C467        N474   1.437       .  S
C468        C469   1.416       .  A
C468        H473   1.078       .  S
C469        C470   1.421       .  A
C470        N471   1.434       .  S
N471        O475   1.262       .  A
N471        O476   1.260       .  A
N474        O478   1.260   1_565  A
N474        O477   1.260       .  A
C479        C480   1.392       .  A
C479        C484   1.391   1_545  A
C479        H486   1.084       .  S
C480        C481   1.409       .  A
C481        C482   1.404   1_545  A
C481        N488   1.428       .  S
C482        C483   1.418       .  A
C482        H487   1.081       .  S
C483        C484   1.433       .  A
C484        N485   1.426   1_565  S
N485        O489   1.262       .  A
N485        O490   1.257   1_545  A
N488        O492   1.262   1_545  A
N488        O491   1.262       .  A
C493        C494   1.387   1_565  A
C493        C498   1.396       .  A
C493        H500   1.085       .  S
C494        C495   1.405       .  A
C495        C496   1.405       .  A
C495        N502   1.427       .  S
C496        C497   1.425       .  A
C496        H501   1.082       .  S
C497        C498   1.421   1_545  A
C498        N499   1.407       .  S
N499        O503   1.257       .  A
N499        O504   1.261       .  A
N502        O506   1.261       .  A
N502        O505   1.262       .  A
C507        C508   1.422       .  A
C507        C512   1.398       .  A
C507        H514   1.074   1_545  S
C508        C509   1.448       .  A
C509        C510   1.407       .  A
C509        N516   1.438       .  S
C510        C511   1.398       .  A
C510        H515   1.084       .  S
C511        C512   1.402       .  A
C512        N513   1.431       .  S
N513        O517   1.262   1_545  A
N513        O518   1.262       .  A
N516        O520   1.261       .  A
N516        O519   1.262       .  A
C521        C522   1.422   1_455  A
C521        C526   1.403       .  A
C521        H528   1.083       .  S
C522        C523   1.435       .  A
C523        C524   1.396       .  A
C523        N530   1.430       .  S
C524        C525   1.390       .  A
C524        H529   1.085       .  S
C525        C526   1.402   1_655  A
C526        N527   1.427       .  S
N527        O531   1.262       .  A
N527        O532   1.262       .  A
N530        O534   1.260       .  A
N530        O533   1.262       .  A
C535        C536   1.394       .  A
C535        C540   1.396       .  A
C535        H542   1.084       .  S
C536        C537   1.405   1_655  A
C537        C538   1.399       .  A
C537        N544   1.428       .  S
C538        C539   1.421   1_455  A
C538        H543   1.079       .  S
C539        C540   1.432       .  A
C540        N541   1.426       .  S
N541        O545   1.262       .  A
N541        O546   1.262       .  A
N544        O548   1.262       .  A
N544        O547   1.262       .  A
C549        C550   1.399       .  A
C549        C554   1.408       .  A
C549        H556   1.084       .  S
C550        C551   1.403       .  A
C551        C552   1.397       .  A
C551        N558   1.428       .  S
C552        C553   1.421       .  A
C552        H557   1.080       .  S
C553        C554   1.436       .  A
C554        N555   1.426       .  S
N555        O559   1.262       .  A
N555        O560   1.262       .  A
N558        O562   1.262       .  A
N558        O561   1.262       .  A
C563        C564   1.389       .  A
C563        C568   1.401       .  A
C563        H570   1.085       .  S
C564        C565   1.401       .  A
C565        C566   1.401       .  A
C565        N572   1.428       .  S
C566        C567   1.424       .  A
C566        H571   1.083       .  S
C567        C568   1.423       .  A
C568        N569   1.410       .  S
N569        O573   1.258       .  A
N569        O574   1.262       .  A
N572        O576   1.262       .  A
N572        O575   1.261       .  A
C577        C578   1.386       .  A
C577        C582   1.391       .  A
C577        H584   1.085       .  S
C578        C579   1.410       .  A
C579        C580   1.411       .  A
C579        N586   1.427       .  S
C580        C581   1.414       .  A
C580        H585   1.080       .  S
C581        C582   1.452       .  A
C582        N583   1.435       .  S
N583        O587   1.261       .  A
N583        O588   1.263       .  A
N586        O590   1.262       .  A
N586        O589   1.262       .  A
C591        C592   1.419       .  A
C591        C596   1.407       .  A
C591        H598   1.074       .  S
C592        C593   1.435       .  A
C593        C594   1.399       .  A
C593        N600   1.432       .  S
C594        C595   1.395       .  A
C594        H599   1.084       .  S
C595        C596   1.410       .  A
C596        N597   1.429       .  S
N597        O601   1.262       .  A
N597        O602   1.262       .  A
N600        O604   1.262       .  A
N600        O603   1.262       .  A
C605        C606   1.407       .  A
C605        C610   1.386       .  A
C605        H612   1.083       .  S
C606        C607   1.435       .  A
C607        C608   1.413       .  A
C607        N614   1.433       .  S
C608        C609   1.410       .  A
C608        H613   1.077       .  S
C609        C610   1.424       .  A
C610        N611   1.433       .  S
N611        O615   1.263       .  A
N611        O616   1.261       .  A
N614        O618   1.261   1_565  A
N614        O617   1.261       .  A
C619        C620   1.390   1_545  A
C619        C624   1.409       .  A
C619        H626   1.087       .  S
C620        C621   1.393       .  A
C621        C622   1.384       .  A
C621        N628   1.430       .  S
C622        C623   1.415       .  A
C622        H627   1.100       .  S
C623        C624   1.457   1_565  A
C624        N625   1.431       .  S
N625        O629   1.262       .  A
N625        O630   1.263       .  A
N628        O632   1.262       .  A
N628        O631   1.262       .  A
C633        C634   1.401       .  A
C633        C638   1.405       .  A
C633        H640   1.084       .  S
C634        C635   1.405       .  A
C635        C636   1.395   1_565  A
C635        N642   1.429       .  S
C636        C637   1.415       .  A
C636        H641   1.075       .  S
C637        C638   1.435   1_545  A
C638        N639   1.432       .  S
N639        O643   1.263       .  A
N639        O644   1.261   1_565  A
N642        O646   1.262   1_565  A
N642        O645   1.262       .  A
C647        C648   1.411       .  A
C647        C652   1.398       .  A
C647        H654   1.077       .  S
C648        C649   1.437       .  A
C649        C650   1.404       .  A
C649        N656   1.438       .  S
C650        C651   1.406       .  A
C650        H655   1.082       .  S
C651        C652   1.424       .  A
C652        N653   1.432       .  S
N653        O657   1.262       .  A
N653        O658   1.260       .  A
N656        O660   1.263       .  A
N656        O659   1.261   1_655  A
C661        C662   1.395       .  A
C661        C666   1.406       .  A
C661        H668   1.083       .  S
C662        C663   1.402       .  A
C663        C664   1.394   1_455  A
C663        N670   1.428   1_455  S
C664        C665   1.419   1_655  A
C664        H669   1.078       .  S
C665        C666   1.452       .  A
C666        N667   1.450       .  S
N667        O671   1.264       .  A
N667        O672   1.255       .  A
N670        O674   1.262       .  A
N670        O673   1.262       .  A
C675        C676   1.408       .  A
C675        C680   1.397       .  A
C675        H682   1.069       .  S
C676        C677   1.430       .  A
C677        C678   1.406       .  A
C677        N684   1.434       .  S
C678        C679   1.402   1_655  A
C678        H683   1.084       .  S
C679        C680   1.409   1_455  A
C680        N681   1.428       .  S
N681        O685   1.262   1_655  A
N681        O686   1.262       .  A
N684        O688   1.261       .  A
N684        O687   1.262       .  A
C689        C690   1.413       .  A
C689        C694   1.403       .  A
C689        H696   1.084       .  S
C690        C691   1.442       .  A
C691        C692   1.396       .  A
C691        N698   1.430       .  S
C692        C693   1.403       .  A
C692        H697   1.071       .  S
C693        C694   1.429       .  A
C694        N695   1.429       .  S
N695        O699   1.262       .  A
N695        O700   1.262       .  A
N698        O702   1.261       .  A
N698        O701   1.264       .  A
C703        C704   1.417       .  A
C703        C708   1.394       .  A
C703        H710   1.079       .  S
C704        C705   1.442       .  A
C705        C706   1.407       .  A
C705        N712   1.447       .  S
C706        C707   1.395       .  A
C706        H711   1.083       .  S
C707        C708   1.401       .  A
C708        N709   1.429       .  S
N709        O713   1.262       .  A
N709        O714   1.262       .  A
N712        O716   1.263       .  A
N712        O715   1.259       .  A
C717        C718   1.396       .  A
C717        C722   1.399       .  A
C717        H724   1.084       .  S
C718        C719   1.407       .  A
C719        C720   1.403       .  A
C719        N726   1.429       .  S
C720        C721   1.423       .  A
C720        H725   1.078       .  S
C721        C722   1.430       .  A
C722        N723   1.427       .  S
N723        O727   1.261       .  A
N723        O728   1.260       .  A
N726        O730   1.262       .  A
N726        O729   1.262       .  A
C731        C732   1.407       .  A
C731        C736   1.402       .  A
C731        H738   1.084       .  S
C732        C733   1.423       .  A
C733        C734   1.401       .  A
C733        N740   1.431       .  S
C734        C735   1.412       .  A
C734        H739   1.074       .  S
C735        C736   1.432       .  A
C736        N737   1.431       .  S
N737        O741   1.262       .  A
N737        O742   1.262       .  A
N740        O744   1.262       .  A
N740        O743   1.262       .  A
C745        C746   1.394       .  A
C745        C750   1.396       .  A
C745        H752   1.084       .  S
C746        C747   1.412   1_565  A
C747        C748   1.409       .  A
C747        N754   1.428       .  S
C748        C749   1.419       .  A
C748        H753   1.080       .  S
C749        C750   1.442   1_545  A
C750        N751   1.436       .  S
N751        O755   1.262       .  A
N751        O756   1.258       .  A
N754        O758   1.262       .  A
N754        O757   1.262       .  A
C759        C760   1.422       .  A
C759        C764   1.402       .  A
C759        H766   1.080       .  S
C760        C761   1.423       .  A
C761        C762   1.403   1_545  A
C761        N768   1.432       .  S
C762        C763   1.399       .  A
C762        H767   1.084       .  S
C763        C764   1.407   1_565  A
C764        N765   1.430       .  S
N765        O769   1.262       .  A
N765        O770   1.262   1_545  A
N768        O772   1.262       .  A
N768        O771   1.261       .  A
C773        C774   1.409       .  A
C773        C778   1.404       .  A
C773        H780   1.085       .  S
C774        C775   1.423       .  A
C775        C776   1.396       .  A
C775        N782   1.432       .  S
C776        C777   1.426       .  A
C776        H781   1.079       .  S
C777        C778   1.431       .  A
C778        N779   1.420       .  S
N779        O783   1.262       .  A
N779        O784   1.264       .  A
N782        O786   1.261       .  A
N782        O785   1.262       .  A
C787        C788   1.413       .  A
C787        C792   1.406       .  A
C787        H794   1.072       .  S
C788        C789   1.431       .  A
C789        C790   1.397       .  A
C789        N796   1.428       .  S
C790        C791   1.400       .  A
C790        H795   1.064       .  S
C791        C792   1.431       .  A
C792        N793   1.432       .  S
N793        O797   1.262       .  A
N793        O798   1.262       .  A
N796        O800   1.262       .  A
N796        O799   1.262   1_655  A
C801        C802   1.424       .  A
C801        C806   1.387       .  A
C801        H808   1.075       .  S
C802        C803   1.437   1_455  A
C803        C804   1.410       .  A
C803        N810   1.434       .  S
C804        C805   1.398   1_655  A
C804        H809   1.084       .  S
C805        C806   1.395       .  A
C806        N807   1.431       .  S
N807        O811   1.262       .  A
N807        O812   1.262       .  A
N810        O814   1.262       .  A
N810        O813   1.262       .  A
C815        C816   1.416   1_655  A
C815        C820   1.405       .  A
C815        H822   1.076       .  S
C816        C817   1.439       .  A
C817        C818   1.391       .  A
C817        N824   1.431       .  S
C818        C819   1.391       .  A
C818        H823   1.084       .  S
C819        C820   1.409   1_455  A
C820        N821   1.428       .  S
N821        O825   1.262       .  A
N821        O826   1.262       .  A
N824        O828   1.262       .  A
N824        O827   1.260       .  A
