geometry optimzed in LAMMPS
_audit_creation_date              2020-11-30 
_audit_creation_method            'lammps2cif' 
_symmetry_space_group_name_H-M    'P1' 
_symmetry_Int_Tables_number       1 
_symmetry_cell_setting            triclinic 
loop_ 
_symmetry_equiv_pos_as_xyz 
  x,y,z 
_cell_length_a                    43.98079243 
_cell_length_b                    43.668802328659076 
_cell_length_c                    43.66896114360712 
_cell_angle_alpha                 90.04007520190996 
_cell_angle_beta                  90.00461251838328 
_cell_angle_gamma                 90.00439817195173 
loop_ 
_atom_site_label 
_atom_site_type_symbol 
_atom_site_fract_x 
_atom_site_fract_y 
_atom_site_fract_z 
_atom_site_charge 
O1          O  0.99765304  0.05130590  0.08606949    -0.81700
O2          O  0.99983260  0.05014090  0.41358483    -0.83200
O3          O  0.04858662  0.08842889  0.00092369    -0.80300
O4          O  0.44848757  0.08753600  0.99862163    -0.78600
O5          O  0.41199644  0.05026709  0.99865024    -0.80400
O6          O  0.08537517  0.05145141  0.00039456    -0.81400
O7          O  0.99708747  0.08743534  0.45028476    -0.82700
O8          O  0.99763227  0.08836209  0.04912833    -0.83000
Eu9        Eu  0.99871403  0.06275892  0.99908842     2.42000
O10         O  0.46884767  0.03101021  0.46926054    -0.90500
O11         O  0.02925342  0.03188014  0.03045851    -0.94100
C12         C  0.99750002  0.07948016  0.07732526     1.00600
C13         C  0.99809628  0.07837503  0.42221125     1.00400
C14         C  0.07666823  0.07968902  0.00106804     1.00400
C15         C  0.42049596  0.07855688  0.99860323     0.98200
H16         H  0.04309559  0.04449967  0.45684410     0.28000
O17         O  0.03071179  0.03176147  0.46976061    -1.02900
H18         H  0.45485850  0.04461271  0.04254919     0.28000
O19         O  0.46767396  0.03186690  0.03010339    -1.05400
O20         O  0.00183088  0.44978744  0.41292190    -0.82600
O21         O  0.00036420  0.45149255  0.08826335    -0.82200
O22         O  0.08745111  0.00126727  0.45151923    -0.80600
O23         O  0.41348233  0.99909281  0.45018736    -0.84000
O24         O  0.41133201  0.00133960  0.04859691    -0.81800
O25         O  0.08557837  0.00352459  0.05016448    -0.80500
O26         O  0.04980340  0.41362101  0.99970883    -0.82000
O27         O  0.44888448  0.41380721  0.00041150    -0.83900
O28         O  0.08654115  0.45067197  0.99982693    -0.80600
O29         O  0.41228262  0.45097843  0.99974662    -0.83300
O30         O  0.05081956  0.99912971  0.41440596    -0.79100
O31         O  0.04839451  0.00299016  0.08680942    -0.79100
O32         O  0.44768496  0.00184892  0.08601366    -0.78700
O33         O  0.45025851  0.99887958  0.41316399    -0.82200
O34         O  0.00064780  0.41302065  0.45020843    -0.81700
O35         O  0.99943606  0.41446552  0.05119340    -0.80000
Eu36       Eu  0.00038920  0.99996952  0.43888291     2.39800
Eu37       Eu  0.99822345  0.00111412  0.06158831     2.39600
Eu38       Eu  0.06074933  0.00096585  0.99990345     2.38400
Eu39       Eu  0.43747926  0.00030870  0.99894239     2.39900
Eu40       Eu  0.99940622  0.43851484  0.00037297     2.39800
O41         O  0.46850144  0.46980603  0.03111391    -0.94400
O42         O  0.03164085  0.46836114  0.46933851    -0.93300
C43         C  0.00144261  0.42167888  0.42192741     1.00800
C44         C  0.00003322  0.42332296  0.07941265     0.99500
C45         C  0.07885041  0.00005798  0.42327211     0.98900
C46         C  0.42215556  0.99866042  0.42191258     1.00900
C47         C  0.41969137  0.00178480  0.07693125     0.99800
C48         C  0.07655021  0.00388929  0.07830094     0.98700
C49         C  0.07787955  0.42245165  0.99963047     0.98700
C50         C  0.42083145  0.42271369  0.00016153     1.01300
H51         H  0.04308890  0.45665226  0.04411993     0.28700
O52         O  0.03045661  0.46934544  0.03144103    -1.06600
H53         H  0.45712585  0.45641626  0.45695560     0.30800
O54         O  0.46997259  0.46911554  0.46946290    -1.09100
O55         O  0.99869938  0.19977415  0.16359194    -0.81700
O56         O  0.99870109  0.20003495  0.33784639    -0.83200
O57         O  0.05094688  0.16325688  0.24902121    -0.80300
O58         O  0.45078313  0.16227362  0.24976554    -0.78600
O59         O  0.41420449  0.19948315  0.24971171    -0.80400
O60         O  0.08774057  0.20027176  0.24986107    -0.81400
O61         O  0.99936783  0.16309650  0.30067608    -0.82700
O62         O  0.99913606  0.16249306  0.20033063    -0.83000
Eu63       Eu  0.00044250  0.18798689  0.25020529     2.39200
O64         O  0.46965874  0.21880221  0.28162218    -0.90500
O65         O  0.03113959  0.21880191  0.21864731    -0.94100
C66         C  0.99854933  0.17151946  0.17221038     1.00600
C67         C  0.99852279  0.17186149  0.32891524     1.00400
C68         C  0.07901450  0.17211919  0.24942920     1.00400
C69         C  0.42277333  0.17112961  0.24934823     0.98200
H70         H  0.04437912  0.20587091  0.29364870     0.28000
O71         O  0.03181987  0.21872195  0.28101052    -1.02900
H72         H  0.45651361  0.20683241  0.20662335     0.28000
O73         O  0.46943582  0.21927823  0.21930895    -1.05400
O74         O  0.00197610  0.29992640  0.33745570    -0.82600
O75         O  0.00064854  0.30076553  0.16295855    -0.82200
O76         O  0.08792200  0.24971586  0.29924928    -0.80600
O77         O  0.41410170  0.25184435  0.30137698    -0.84000
O78         O  0.41384850  0.25333852  0.20051898    -0.81800
O79         O  0.08672151  0.24797961  0.19880467    -0.80500
O80         O  0.05197136  0.33704667  0.24961977    -0.82000
O81         O  0.45143067  0.33735517  0.24961581    -0.83900
O82         O  0.08830520  0.29966610  0.24878582    -0.80600
O83         O  0.41435140  0.30065001  0.25113399    -0.83300
O84         O  0.05153923  0.24912074  0.33663341    -0.79100
O85         O  0.04983251  0.24838522  0.16194859    -0.79100
O86         O  0.45013302  0.25246308  0.16304515    -0.78700
O87         O  0.45131349  0.25153458  0.33790746    -0.82200
O88         O  0.00304124  0.33698455  0.30044822    -0.81700
O89         O  0.00153180  0.33766212  0.20015582    -0.80000
Eu90       Eu  0.00110975  0.24992438  0.31219188     2.39800
Eu91       Eu  0.00026862  0.25028768  0.18796774     2.39600
Eu92       Eu  0.06234648  0.24985937  0.24938890     2.38400
Eu93       Eu  0.43897938  0.25031400  0.25079094     2.39900
Eu94       Eu  0.00159138  0.31221328  0.25007708     2.39800
O95         O  0.46996791  0.28121949  0.21958294    -0.94400
O96         O  0.03218009  0.28091747  0.28107861    -0.93300
C97         C  0.00269265  0.32810042  0.32863031     1.00800
C98         C  0.00113544  0.32896633  0.17192871     0.99500
C99         C  0.07951184  0.24917444  0.32755291     0.98900
C100        C  0.42314123  0.25224256  0.32955496     1.00900
C101        C  0.42221182  0.25368113  0.17215424     0.99800
C102        C  0.07791193  0.24780944  0.17059994     0.98700
C103        C  0.07996582  0.32800801  0.24913324     0.98700
C104        C  0.42329963  0.32878947  0.25032060     1.01300
H105        H  0.04462237  0.29373708  0.20547883     0.28700
O106        O  0.03194681  0.28126771  0.21833147    -1.06600
H107        H  0.45817065  0.29431194  0.29411585     0.30800
O108        O  0.47048762  0.28138165  0.28133673    -1.09100
O109        O  0.33767578  0.50190582  0.20001047    -0.81700
O110        O  0.16471803  0.50016206  0.19973687    -0.83200
O111        O  0.25172264  0.45149799  0.16255819    -0.80300
O112        O  0.24791156  0.05243170  0.16474375    -0.78600
O113        O  0.25051558  0.08912948  0.20201468    -0.80400
O114        O  0.25262523  0.41428032  0.19937825    -0.81400
O115        O  0.20113340  0.50070650  0.16242792    -0.82700
O116        O  0.30070581  0.50176142  0.16317967    -0.83000
Eu117      Eu  0.25086627  0.50114779  0.18845430     2.39200
O118        O  0.21844843  0.03201101  0.22002047    -0.90500
O119        O  0.28248121  0.47007926  0.21885953    -0.94100
C120        C  0.32877568  0.50184947  0.17184661     1.00600
C121        C  0.17311701  0.50039041  0.17135865     1.00400
C122        C  0.25222157  0.42329066  0.17125096     1.00400
C123        C  0.24922700  0.08057385  0.17376915     0.98200
H124        H  0.20800703  0.45637926  0.20623542     0.28000
O125        O  0.22054193  0.46915095  0.21903115    -1.02900
H126        H  0.29267913  0.04369254  0.20622716     0.28000
O127        O  0.28010230  0.03104380  0.21899220    -1.05400
O128        O  0.16522912  0.49696144  0.30072935    -0.82600
O129        O  0.33860728  0.50153487  0.30058585    -0.82200
O130        O  0.20252588  0.41240091  0.25038855    -0.80600
O131        O  0.20062223  0.08783886  0.25169859    -0.84000
O132        O  0.30084179  0.08662303  0.24947349    -0.81800
O133        O  0.30236524  0.41394495  0.24929758    -0.80500
O134        O  0.25284242  0.45004570  0.33697474    -0.82000
O135        O  0.25347348  0.04867433  0.33831758    -0.83900
O136        O  0.25352932  0.41296377  0.29997026    -0.80600
O137        O  0.25371549  0.08624002  0.30188759    -0.83300
O138        O  0.16558995  0.44923815  0.25062082    -0.79100
O139        O  0.33894428  0.45113407  0.24966913    -0.79100
O140        O  0.33714382  0.04917681  0.24888555    -0.78700
O141        O  0.16357425  0.05102742  0.25054716    -0.82200
O142        O  0.20202165  0.49850093  0.33773398    -0.81700
O143        O  0.30194967  0.50181664  0.33768046    -0.80000
Eu144      Eu  0.18972082  0.49993122  0.25037375     2.39800
Eu145      Eu  0.31307413  0.50103581  0.25034273     2.39600
Eu146      Eu  0.25217647  0.43852826  0.24992817     2.38400
Eu147      Eu  0.25042217  0.06218467  0.25112770     2.39900
Eu148      Eu  0.25192472  0.50026197  0.31240913     2.39800
O149        O  0.28137353  0.03053308  0.28141714    -0.94400
O150        O  0.22129580  0.46928718  0.28109093    -0.93300
C151        C  0.17400170  0.49701740  0.32894236     1.00800
C152        C  0.32999165  0.50196440  0.32888074     0.99500
C153        C  0.17440825  0.42102991  0.25056546     0.98900
C154        C  0.17253545  0.07917743  0.25102063     1.00900
C155        C  0.32879988  0.07754901  0.24876630     0.99800
C156        C  0.33035760  0.42284637  0.24943096     0.98700
C157        C  0.25348213  0.42186574  0.32817673     0.98700
C158        C  0.25448831  0.07697505  0.32994799     1.01300
H159        H  0.29587167  0.45686802  0.29390810     0.28700
O160        O  0.28297229  0.46941437  0.28134435    -1.06600
H161        H  0.20689516  0.04393851  0.29482083     0.30800
O162        O  0.21904990  0.03115518  0.28178183    -1.09100
O163        O  0.19930786  0.16421437  0.50031781    -0.81700
O164        O  0.19916136  0.33720615  0.49727814    -0.83200
O165        O  0.16281796  0.25015225  0.04935994    -0.80300
O166        O  0.16483304  0.24938716  0.44851078    -0.78600
O167        O  0.20192603  0.24959535  0.41186675    -0.80400
O168        O  0.19946455  0.24955590  0.08647046    -0.81400
O169        O  0.16295080  0.29971488  0.49603732    -0.82700
O170        O  0.16271136  0.20130915  0.49866830    -0.83000
Eu171      Eu  0.18862792  0.25049221  0.49911893     2.39200
O172        O  0.21980323  0.28149559  0.46841526    -0.90500
O173        O  0.21879315  0.22020347  0.03130490    -0.94100
C174        C  0.17125453  0.17313020  0.49912820     1.00600
C175        C  0.17130050  0.32796333  0.49586026     1.00400
C176        C  0.17146882  0.24946562  0.07752342     1.00400
C177        C  0.17376075  0.24918513  0.42038614     0.98200
H178        H  0.20598746  0.29490831  0.04406773     0.28000
O179        O  0.21856547  0.28216701  0.03136344    -1.02900
H180        H  0.20765952  0.20628920  0.45586236     0.28000
O181        O  0.21994137  0.21920342  0.46875378    -1.05400
O182        O  0.29887686  0.33968043  0.50127536    -0.82600
O183        O  0.29991485  0.16355191  0.50186170    -0.82200
O184        O  0.25022420  0.30137264  0.08732135    -0.80600
O185        O  0.25199298  0.30069250  0.41340557    -0.84000
O186        O  0.25289991  0.19944320  0.41373774    -0.81800
O187        O  0.25094336  0.20153956  0.08797373    -0.80500
O188        O  0.33620859  0.25243944  0.05089053    -0.82000
O189        O  0.33885226  0.25254235  0.45294156    -0.83900
O190        O  0.29965077  0.25329000  0.08803435    -0.80600
O191        O  0.30262523  0.25090073  0.41539379    -0.83300
O192        O  0.25170876  0.33806656  0.05001950    -0.79100
O193        O  0.24912003  0.16421378  0.05125709    -0.79100
O194        O  0.25126503  0.16284579  0.45116969    -0.78700
O195        O  0.25010696  0.33798164  0.45017636    -0.82200
O196        O  0.33553681  0.30264529  0.50345201    -0.81700
O197        O  0.33664703  0.20067629  0.50278892    -0.80000
Eu198      Eu  0.24953120  0.31300339  0.50017024     2.39800
Eu199      Eu  0.25004306  0.18879145  0.50098147     2.39600
Eu200      Eu  0.24982706  0.25120356  0.06227958     2.38400
Eu201      Eu  0.25151637  0.25023550  0.43838203     2.39900
Eu202      Eu  0.31175030  0.25149823  0.50228863     2.39800
O203        O  0.28176840  0.21986048  0.47069070    -0.94400
O204        O  0.28041504  0.28204912  0.03111560    -0.93300
C205        C  0.32690861  0.33093667  0.50267530     1.00800
C206        C  0.32793797  0.17235038  0.50248079     0.99500
C207        C  0.25133739  0.32947314  0.07828244     0.98900
C208        C  0.25138822  0.32897773  0.42208573     1.00900
C209        C  0.25253646  0.17128834  0.42288190     0.99800
C210        C  0.25012334  0.17329430  0.07940535     0.98700
C211        C  0.32769002  0.25352597  0.07918787     0.98700
C212        C  0.33055390  0.25212777  0.42454075     1.01300
H213        H  0.29314565  0.20686082  0.04450376     0.28700
O214        O  0.28044454  0.21939307  0.03171634    -1.06600
H215        H  0.29417645  0.29470307  0.45772080     0.30800
O216        O  0.28135354  0.28189043  0.47009848    -1.09100
C217        C  0.25663370  0.13510241  0.15704284    -0.14900
C218        C  0.24943546  0.10455418  0.14985994     0.07300
C219        C  0.24268134  0.09689257  0.11934935    -0.14900
C220        C  0.24309825  0.11916262  0.09651273    -0.14900
C221        C  0.25021900  0.14967981  0.10362689     0.07300
C222        C  0.25703238  0.15743690  0.13414415    -0.14900
H223        H  0.26215994  0.14173397  0.18028928     0.11200
H224        H  0.23686899  0.07362937  0.11304332     0.11200
H225        H  0.23753712  0.11245887  0.07329689     0.11200
H226        H  0.26279760  0.18074177  0.14035152     0.11200
C227        C  0.24245075  0.36964241  0.15442213    -0.14900
C228        C  0.25201633  0.39948078  0.14733918     0.07300
C229        C  0.26127591  0.40625703  0.11731551    -0.14900
C230        C  0.26124284  0.38347450  0.09486529    -0.14900
C231        C  0.25183349  0.35355319  0.10201995     0.07300
C232        C  0.24241130  0.34690287  0.13201879    -0.14900
H233        H  0.23472602  0.36389440  0.17725955     0.11200
H234        H  0.26886320  0.42906118  0.11125669     0.11200
H235        H  0.26877470  0.38924026  0.07197018     0.11200
H236        H  0.23465268  0.32417670  0.13813659     0.11200
C237        C  0.26260784  0.36800079  0.34555801    -0.14900
C238        C  0.25396130  0.39822039  0.35230645     0.07300
C239        C  0.24535026  0.40568833  0.38239210    -0.14900
C240        C  0.24464166  0.38325009  0.40507981    -0.14900
C241        C  0.25257941  0.35284819  0.39817645     0.07300
C242        C  0.26193474  0.34553890  0.36828453    -0.14900
H243        H  0.26988161  0.36169285  0.32271357     0.11200
H244        H  0.23859474  0.42879237  0.38833244     0.11200
H245        H  0.23743484  0.38965800  0.42791945     0.11200
H246        H  0.26878731  0.32244415  0.36243262     0.11200
C247        C  0.26560301  0.13043156  0.34741435    -0.14900
C248        C  0.25588474  0.10055159  0.35422435     0.07300
C249        C  0.24609613  0.09381539  0.38410169    -0.14900
C250        C  0.24499686  0.11676646  0.40639074    -0.14900
C251        C  0.25389719  0.14689026  0.39934007     0.07300
C252        C  0.26452842  0.15337354  0.36970178    -0.14900
H253        H  0.27379245  0.13616883  0.32474124     0.11200
H254        H  0.23844951  0.07100309  0.39004879     0.11200
H255        H  0.23668966  0.11101519  0.42901480     0.11200
H256        H  0.27207762  0.17620482  0.36371771     0.11200
C257        C  0.40651616  0.11579241  0.24913221    -0.14900
C258        C  0.39881413  0.14707773  0.24823149     0.07300
C259        C  0.36791992  0.15514270  0.24628192    -0.14900
C260        C  0.34530634  0.13262081  0.24605467    -0.14900
C261        C  0.35294718  0.10138478  0.24779594     0.07300
C262        C  0.38388233  0.09325165  0.24891764    -0.14900
H263        H  0.43006133  0.10864416  0.25033093     0.11200
H264        H  0.36110086  0.17893962  0.24514223     0.11200
H265        H  0.32177046  0.13978346  0.24476243     0.11200
H266        H  0.39067646  0.06944270  0.25000040     0.11200
C267        C  0.40722169  0.38363487  0.24446826    -0.14900
C268        C  0.39956151  0.35290739  0.25019253     0.07300
C269        C  0.36893202  0.34542948  0.25566410    -0.14900
C270        C  0.34653582  0.36810650  0.25535033    -0.14900
C271        C  0.35419295  0.39883705  0.24958886     0.07300
C272        C  0.38481215  0.40633377  0.24419344    -0.14900
H273        H  0.43054959  0.39018544  0.23999880     0.11200
H274        H  0.36220687  0.32203730  0.26033882     0.11200
H275        H  0.32321493  0.36153389  0.25984270     0.11200
H276        H  0.39148987  0.42974479  0.23955438     0.11200
C277        C  0.13272509  0.15569508  0.25923095    -0.14900
C278        C  0.10302272  0.14843806  0.24966187     0.07300
C279        C  0.09651420  0.11837492  0.24039613    -0.14900
C280        C  0.11913367  0.09597197  0.24083823    -0.14900
C281        C  0.14877354  0.10312729  0.25056079     0.07300
C282        C  0.15537566  0.13326586  0.25966471    -0.14900
H283        H  0.13840884  0.17864602  0.26671522     0.11200
H284        H  0.07396520  0.11218317  0.23257508     0.11200
H285        H  0.11342507  0.07304605  0.23330823     0.11200
H286        H  0.17794851  0.13945019  0.26742439     0.11200
C287        C  0.09676379  0.38297217  0.25139792    -0.14900
C288        C  0.10422425  0.35174965  0.24919330     0.07300
C289        C  0.13513000  0.34346459  0.24752387    -0.14900
C290        C  0.15793931  0.36582639  0.24815829    -0.14900
C291        C  0.15041882  0.39705091  0.25040285     0.07300
C292        C  0.11952975  0.40528909  0.25205852    -0.14900
H293        H  0.07327073  0.39026144  0.25277618     0.11200
H294        H  0.14177524  0.31965364  0.24575025     0.11200
H295        H  0.18145493  0.35861010  0.24676326     0.11200
H296        H  0.11281601  0.42907835  0.25386871     0.11200
C297        C  0.40552560  0.25505327  0.11709203    -0.14900
C298        C  0.39803324  0.25518919  0.14840158     0.07300
C299        C  0.36713907  0.25608230  0.15674268    -0.14900
C300        C  0.34433761  0.25594411  0.13437579    -0.14900
C301        C  0.35182845  0.25493822  0.10306156     0.07300
C302        C  0.38274496  0.25491369  0.09474514    -0.14900
H303        H  0.42904022  0.25463625  0.10975208     0.11200
H304        H  0.36047620  0.25647448  0.18061106     0.11200
H305        H  0.32081510  0.25626223  0.14168875     0.11200
H306        H  0.38944782  0.25441931  0.07089153     0.11200
C307        C  0.13269962  0.24645256  0.15475225    -0.14900
C308        C  0.10177080  0.24745538  0.14659826     0.07300
C309        C  0.09399302  0.24888640  0.11539458    -0.14900
C310        C  0.11660040  0.24948099  0.09295355    -0.14900
C311        C  0.14750758  0.24862288  0.10120527     0.07300
C312        C  0.15527771  0.24704218  0.13233862    -0.14900
H313        H  0.13956955  0.24537480  0.17853734     0.11200
H314        H  0.07042921  0.24978789  0.10826226     0.11200
H315        H  0.10979084  0.25075548  0.06915377     0.11200
H316        H  0.17884277  0.24633517  0.13949817     0.11200
C317        C  0.13455466  0.24676738  0.34289294    -0.14900
C318        C  0.10368111  0.24846624  0.35123773     0.07300
C319        C  0.09614546  0.24955398  0.38247911    -0.14900
C320        C  0.11887711  0.24952885  0.40478687    -0.14900
C321        C  0.14978459  0.24842774  0.39647178     0.07300
C322        C  0.15733476  0.24675325  0.36524637    -0.14900
H323        H  0.14120371  0.24558076  0.31904627     0.11200
H324        H  0.07264451  0.25068597  0.38978998     0.11200
H325        H  0.11212971  0.25064354  0.42860926     0.11200
H326        H  0.18085693  0.24557909  0.35801828     0.11200
C327        C  0.40781546  0.25171114  0.38517048    -0.14900
C328        C  0.39960903  0.25349836  0.35403975     0.07300
C329        C  0.36862347  0.25609966  0.34656463    -0.14900
C330        C  0.34642253  0.25597793  0.36947073    -0.14900
C331        C  0.35452499  0.25329055  0.40053119     0.07300
C332        C  0.38556213  0.25160473  0.40813185    -0.14900
H333        H  0.43146104  0.24995846  0.39185274     0.11200
H334        H  0.36140653  0.25795851  0.32293044     0.11200
H335        H  0.32280209  0.25779668  0.36271240     0.11200
H336        H  0.39269421  0.24978132  0.43179594     0.11200
C337        C  0.36586974  0.40704830  0.00303567    -0.14900
C338        C  0.39672928  0.39889027  0.00040234     0.07300
C339        C  0.40431794  0.36770963  0.99808287    -0.14900
C340        C  0.38168542  0.34526817  0.99821058    -0.14900
C341        C  0.35085729  0.35340316  0.00064520     0.07300
C342        C  0.34321575  0.38458187  0.00318269    -0.14900
H343        H  0.35915199  0.43082103  0.00505952     0.11200
H344        H  0.42780222  0.36055975  0.99601343     0.11200
H345        H  0.38842187  0.32150006  0.99621616     0.11200
H346        H  0.31972063  0.39169523  0.00531045     0.11200
C347        C  0.36551021  0.09408210  0.99834324    -0.14900
C348        C  0.39643239  0.10234197  0.99876349     0.07300
C349        C  0.40411718  0.13357401  0.99959460    -0.14900
C350        C  0.38148890  0.15597667  0.00017838    -0.14900
C351        C  0.35058481  0.14774482  0.99990154     0.07300
C352        C  0.34285780  0.11651001  0.99889130    -0.14900
H353        H  0.35872896  0.07025306  0.99762642     0.11200
H354        H  0.42766711  0.14080514  0.99988918     0.11200
H355        H  0.38830460  0.17979632  0.00084345     0.11200
H356        H  0.31929551  0.10931731  0.99852252     0.11200
C357        C  0.13250883  0.40644110  0.99440614    -0.14900
C358        C  0.10189357  0.39860003  0.99957537     0.07300
C359        C  0.09451038  0.36777541  0.00503287    -0.14900
C360        C  0.11713098  0.34532370  0.00526937    -0.14900
C361        C  0.14770454  0.35314285  0.00002873     0.07300
C362        C  0.15513958  0.38397713  0.99464142    -0.14900
H363        H  0.13902452  0.42994735  0.99001165     0.11200
H364        H  0.07122976  0.36096090  0.00935454     0.11200
H365        H  0.11062592  0.32182642  0.00972419     0.11200
H366        H  0.17843721  0.39077742  0.99036736     0.11200
C367        C  0.09310103  0.13486120  0.00369806    -0.14900
C368        C  0.10069078  0.10361685  0.00197469     0.07300
C369        C  0.13160875  0.09538089  0.00103598    -0.14900
C370        C  0.15431876  0.11775175  0.00153165    -0.14900
C371        C  0.14675334  0.14899370  0.00288746     0.07300
C372        C  0.11584399  0.15726586  0.00414661    -0.14900
H373        H  0.06956284  0.14207938  0.00458104     0.11200
H374        H  0.13837330  0.07157440  0.99972531     0.11200
H375        H  0.17784016  0.11049370  0.00052459     0.11200
H376        H  0.10914005  0.18109865  0.00531863     0.11200
C377        C  0.36775618  0.00481539  0.40521086    -0.14900
C378        C  0.39809603  0.99765118  0.39792624     0.07300
C379        C  0.40505793  0.98929937  0.36759357    -0.14900
C380        C  0.38234657  0.98857290  0.34505864    -0.14900
C381        C  0.35210095  0.99624133  0.35226389     0.07300
C382        C  0.34507896  0.00407255  0.38271755    -0.14900
H383        H  0.36153178  0.01140421  0.42828692     0.11200
H384        H  0.42808137  0.98321303  0.36124903     0.11200
H385        H  0.38850972  0.98204169  0.32195045     0.11200
H386        H  0.32208346  0.01020202  0.38912703     0.11200
C387        C  0.09501540  0.99806413  0.36817981    -0.14900
C388        C  0.10282028  0.00007664  0.39933228     0.07300
C389        C  0.13372875  0.00260014  0.40729807    -0.14900
C390        C  0.15622777  0.00320581  0.38466215    -0.14900
C391        C  0.14838824  0.00117888  0.35349685     0.07300
C392        C  0.11747926  0.99869670  0.34557711    -0.14900
H393        H  0.07148782  0.99602541  0.36115432     0.11200
H394        H  0.14061140  0.00422773  0.43105305     0.11200
H395        H  0.17977354  0.00521714  0.39163254     0.11200
H396        H  0.11054557  0.99701893  0.32184201     0.11200
C397        C  0.13040420  0.01282448  0.09541482    -0.14900
C398        C  0.10020865  0.00492909  0.10252941     0.07300
C399        C  0.09299914  0.99723672  0.13293011    -0.14900
C400        C  0.11552075  0.99682624  0.15555010    -0.14900
C401        C  0.14581475  0.00418824  0.14835519     0.07300
C402        C  0.15292872  0.01243052  0.11804350    -0.14900
H403        H  0.13669146  0.01922566  0.07230906     0.11200
H404        H  0.07001133  0.99092862  0.13918459     0.11200
H405        H  0.10925284  0.99025353  0.17860812     0.11200
H406        H  0.17595089  0.01858835  0.11175908     0.11200
C407        C  0.40278781  0.99715755  0.13161095    -0.14900
C408        C  0.39547070  0.00189293  0.10065165     0.07300
C409        C  0.36474227  0.00601635  0.09258281    -0.14900
C410        C  0.34192078  0.00510894  0.11491601    -0.14900
C411        C  0.34930058  0.00012157  0.14586144     0.07300
C412        C  0.38002175  0.99619771  0.15387987    -0.14900
H413        H  0.42615125  0.99382000  0.13868734     0.11200
H414        H  0.35827377  0.00994061  0.06898133     0.11200
H415        H  0.31853392  0.00846933  0.10792282     0.11200
H416        H  0.38659360  0.99228310  0.17745214     0.11200
C417        C  0.48514199  0.13125236  0.40425684    -0.14900
C418        C  0.99744520  0.10211892  0.39822990     0.07300
C419        C  0.00920872  0.09592260  0.36900149    -0.14900
C420        C  0.00924582  0.11853432  0.34645318    -0.14900
C421        C  0.99762244  0.14783698  0.35269357     0.07300
C422        C  0.48516816  0.15389335  0.38166725    -0.14900
H423        H  0.47526000  0.13640691  0.42639125     0.11200
H424        H  0.01885903  0.07372628  0.36368675     0.11200
H425        H  0.01891086  0.11323727  0.32426171     0.11200
H426        H  0.47532907  0.17604114  0.38683832     0.11200
C427        C  0.01315914  0.38161663  0.34597965    -0.14900
C428        C  0.00272737  0.35194659  0.35255107     0.07300
C429        C  0.49181939  0.34534529  0.38205392    -0.14900
C430        C  0.49145337  0.36798968  0.40462043    -0.14900
C431        C  0.00190187  0.39770295  0.39808006     0.07300
C432        C  0.01274174  0.40428577  0.36852149    -0.14900
H433        H  0.02185134  0.38726367  0.32347207     0.11200
H434        H  0.48319629  0.32279011  0.38761833     0.11200
H435        H  0.48260755  0.36236756  0.42706996     0.11200
H436        H  0.02117077  0.42689677  0.36288198     0.11200
C437        C  0.50936224  0.40617526  0.13333558    -0.14900
C438        C  0.00042574  0.39936022  0.10321331     0.07300
C439        C  0.99098790  0.36947179  0.09609637    -0.14900
C440        C  0.99139053  0.34659227  0.11835404    -0.14900
C441        C  0.00120251  0.35312075  0.14824602     0.07300
C442        C  0.50980728  0.38327287  0.15564624    -0.14900
H443        H  0.51629946  0.42913867  0.13961243     0.11200
H444        H  0.98297393  0.36378454  0.07333939     0.11200
H445        H  0.98363862  0.32385706  0.11223031     0.11200
H446        H  0.51703886  0.38915242  0.17861991     0.11200
C447        C  0.99431974  0.13421919  0.09412499    -0.14900
C448        C  0.99729782  0.10308723  0.10153746     0.07300
C449        C  0.49914906  0.09442188  0.13255497    -0.14900
C450        C  0.49926844  0.11656128  0.15554646    -0.14900
C451        C  0.99775239  0.14790404  0.14801173     0.07300
C452        C  0.99452952  0.15638199  0.11712066    -0.14900
H453        H  0.99184127  0.14151914  0.07056119     0.11200
H454        H  0.50050380  0.07056019  0.13915248     0.11200
H455        H  0.50072201  0.10915913  0.17916611     0.11200
H456        H  0.99221073  0.18019222  0.11061531     0.11200
O457        O  0.99806712  0.05219841  0.58705602    -0.81700
O458        O  0.00029142  0.04991602  0.91196753    -0.83200
O459        O  0.04848879  0.08941461  0.49855075    -0.80300
O460        O  0.44858947  0.08660245  0.50027318    -0.78600
O461        O  0.41209263  0.04933661  0.50153791    -0.80400
O462        O  0.08547853  0.05264948  0.49994266    -0.81400
O463        O  0.99787860  0.08721418  0.94874334    -0.82700
O464        O  0.99831436  0.08880003  0.54968522    -0.83000
Eu465      Eu  0.99914329  0.06261547  0.50030394     2.42000
O466        O  0.46837305  0.03128014  0.96783156    -0.90500
O467        O  0.03069702  0.03289016  0.53215951    -0.94100
C468        C  0.99762066  0.08031145  0.57792883     1.00600
C469        C  0.99891339  0.07813266  0.92065725     1.00400
C470        C  0.07661629  0.08081079  0.49872523     1.00400
C471        C  0.42060164  0.07766032  0.50111991     0.98200
H472        H  0.04294273  0.04456759  0.95561391     0.28000
O473        O  0.03024938  0.03185841  0.96827594    -1.02900
H474        H  0.45565031  0.04418663  0.54410321     0.28000
O475        O  0.46858705  0.03166272  0.53154248    -1.05400
O476        O  0.00213608  0.45003227  0.91303933    -0.82600
O477        O  0.99822366  0.45090022  0.58831080    -0.82200
O478        O  0.08554296  0.00059993  0.94932235    -0.80600
O479        O  0.41366334  0.00037815  0.94831368    -0.84000
O480        O  0.41307403  0.99875152  0.55052403    -0.81800
O481        O  0.08574422  0.00320292  0.55257049    -0.80500
O482        O  0.04958130  0.41173124  0.49981510    -0.82000
O483        O  0.44990551  0.41373893  0.50168672    -0.83900
O484        O  0.08641501  0.44862306  0.49788486    -0.80600
O485        O  0.41395337  0.45145890  0.50326151    -0.83300
O486        O  0.04928645  0.99884280  0.91185770    -0.79100
O487        O  0.04899312  0.00297216  0.58959340    -0.79100
O488        O  0.44962077  0.00000730  0.58771487    -0.78700
O489        O  0.45042962  0.00012588  0.91131724    -0.82200
O490        O  0.99965062  0.41326446  0.95034122    -0.81700
O491        O  0.99927390  0.41365995  0.55141855    -0.80000
Eu492      Eu  0.99981231  0.99989972  0.93745345     2.39800
Eu493      Eu  0.99994288  0.00141655  0.56302746     2.39600
Eu494      Eu  0.06198613  0.00169285  0.50150279     2.38400
Eu495      Eu  0.43855340  0.99965536  0.50059620     2.39900
Eu496      Eu  0.00040219  0.43803623  0.50076226     2.39800
O497        O  0.47010766  0.46956841  0.53206212    -0.94400
O498        O  0.03029627  0.46946325  0.96934811    -0.93300
C499        C  0.00103407  0.42194811  0.92214832     1.00800
C500        C  0.99814477  0.42267413  0.57957422     0.99500
C501        C  0.07717092  0.99963061  0.92096916     0.98900
C502        C  0.42241097  0.00019452  0.92012297     1.00900
C503        C  0.42162351  0.99916087  0.57879257     0.99800
C504        C  0.07700483  0.00339274  0.58083147     0.98700
C505        C  0.07757112  0.42042917  0.49814215     0.98700
C506        C  0.42205206  0.42308340  0.50290274     1.01300
H507        H  0.04420610  0.45603675  0.54431652     0.28700
O508        O  0.03173035  0.46895012  0.53168649    -1.06600
H509        H  0.45630327  0.45660489  0.95603824     0.30800
O510        O  0.46884414  0.46939229  0.96877808    -1.09100
O511        O  0.99743027  0.20232865  0.66225191    -0.81700
O512        O  0.99864796  0.19962555  0.83729465    -0.83200
O513        O  0.04801385  0.16164916  0.74923996    -0.80300
O514        O  0.44888083  0.16328012  0.74968695    -0.78600
O515        O  0.41245115  0.20055330  0.75158596    -0.80400
O516        O  0.08488818  0.19852905  0.74895835    -0.81400
O517        O  0.99850879  0.16299462  0.79975447    -0.82700
O518        O  0.99812737  0.16501355  0.69892368    -0.83000
Eu519      Eu  0.99887132  0.18839750  0.74983349     2.39200
O520        O  0.46848323  0.21895881  0.78193081    -0.90500
O521        O  0.02956430  0.21930335  0.71847457    -0.94100
C522        C  0.99737753  0.17410446  0.67082909     1.00600
C523        C  0.99838049  0.17158521  0.82801753     1.00400
C524        C  0.07608941  0.17029266  0.74889186     1.00400
C525        C  0.42092344  0.17227236  0.75060545     0.98200
H526        H  0.04277215  0.20577754  0.79376611     0.28000
O527        O  0.03015737  0.21870525  0.78125677    -1.02900
H528        H  0.45482713  0.20748945  0.70676009     0.28000
O529        O  0.46775401  0.21988371  0.71950545    -1.05400
O530        O  0.99816483  0.29998733  0.83849399    -0.82600
O531        O  0.99797908  0.30196143  0.66461817    -0.82200
O532        O  0.08633884  0.24996665  0.79994690    -0.80600
O533        O  0.41298361  0.24990451  0.80164015    -0.84000
O534        O  0.41127120  0.25119265  0.70251250    -0.81800
O535        O  0.08463949  0.25013899  0.69863955    -0.80500
O536        O  0.05067080  0.33601682  0.75199851    -0.82000
O537        O  0.45031357  0.33823774  0.75212802    -0.83900
O538        O  0.08724865  0.29883847  0.75057043    -0.80600
O539        O  0.41362992  0.30115306  0.75190546    -0.83300
O540        O  0.04978557  0.25048250  0.83719849    -0.79100
O541        O  0.04755867  0.25188094  0.66199445    -0.79100
O542        O  0.44744440  0.25316099  0.66497770    -0.78700
O543        O  0.44978158  0.24864596  0.83854237    -0.82200
O544        O  0.99985730  0.33711696  0.80155263    -0.81700
O545        O  0.99828358  0.33875981  0.70189307    -0.80000
Eu546      Eu  0.99954187  0.24990585  0.81276112     2.39800
Eu547      Eu  0.99836619  0.25147456  0.68868637     2.39600
Eu548      Eu  0.06090781  0.24948044  0.74980860     2.38400
Eu549      Eu  0.43778595  0.25061036  0.75158962     2.39900
Eu550      Eu  0.99983559  0.31236180  0.75139838     2.39800
O551        O  0.46812664  0.28221111  0.72064125    -0.94400
O552        O  0.03069847  0.28063080  0.78168293    -0.93300
C553        C  0.99889313  0.32819342  0.82966067     1.00800
C554        C  0.99785256  0.33007330  0.67364755     0.99500
C555        C  0.07776761  0.25036385  0.82824544     0.98900
C556        C  0.42171918  0.24911655  0.82980654     1.00900
C557        C  0.41951991  0.25259212  0.67423677     0.99800
C558        C  0.07568949  0.25117371  0.67044363     0.98700
C559        C  0.07868950  0.32708485  0.75153035     0.98700
C560        C  0.42229525  0.32938284  0.75223323     1.01300
H561        H  0.04274507  0.29445334  0.70695271     0.28700
O562        O  0.03020678  0.28164130  0.71959673    -1.06600
H563        H  0.45618716  0.29406769  0.79553168     0.30800
O564        O  0.46874570  0.28149991  0.78263137    -1.09100
O565        O  0.33623259  0.49905999  0.69930805    -0.81700
O566        O  0.16372425  0.49867272  0.69946334    -0.83200
O567        O  0.25210333  0.44944470  0.66414780    -0.80300
O568        O  0.24752470  0.05046453  0.66289245    -0.78600
O569        O  0.24673942  0.08749688  0.69994674    -0.80400
O570        O  0.25068937  0.41232320  0.70102001    -0.81400
O571        O  0.20053777  0.49777018  0.66247515    -0.82700
O572        O  0.29969285  0.50061868  0.66213128    -0.83000
Eu573      Eu  0.24999034  0.49986108  0.68802128     2.39200
O574        O  0.21861759  0.03130685  0.71946114    -0.90500
O575        O  0.28072861  0.46858810  0.71896683    -0.94100
C576        C  0.32771158  0.50012068  0.67101628     1.00600
C577        C  0.17253310  0.49788766  0.67125787     1.00400
C578        C  0.25158065  0.42128734  0.67290507     1.00400
C579        C  0.24664642  0.07864378  0.67175149     0.98200
H580        H  0.20652758  0.45578631  0.70669041     0.28000
O581        O  0.21899792  0.46883103  0.71925412    -1.02900
H582        H  0.29275067  0.04480668  0.70618794     0.28000
O583        O  0.28030292  0.03201595  0.71895676    -1.05400
O584        O  0.16315641  0.49999902  0.80080211    -0.82600
O585        O  0.33555193  0.50193615  0.80025404    -0.82200
O586        O  0.19983804  0.41270933  0.75158916    -0.80600
O587        O  0.19847254  0.08696511  0.74924422    -0.84000
O588        O  0.29893022  0.08816234  0.75081167    -0.81800
O589        O  0.29983939  0.41275729  0.75218082    -0.80500
O590        O  0.24960558  0.45118542  0.83774916    -0.82000
O591        O  0.25192011  0.05142438  0.83694710    -0.83900
O592        O  0.25030763  0.41388145  0.80101072    -0.80600
O593        O  0.24815057  0.08840522  0.79998065    -0.83300
O594        O  0.16283932  0.44950362  0.75170647    -0.79100
O595        O  0.33634157  0.45001445  0.75168911    -0.79100
O596        O  0.33563187  0.05104215  0.75028764    -0.78700
O597        O  0.16228698  0.04945686  0.75022408    -0.82200
O598        O  0.19999376  0.49945103  0.83769510    -0.81700
O599        O  0.29897493  0.50223827  0.83743060    -0.80000
Eu600      Eu  0.18784433  0.49995564  0.75014209     2.39800
Eu601      Eu  0.31129678  0.50009348  0.74972661     2.39600
Eu602      Eu  0.24984320  0.43809328  0.75064310     2.38400
Eu603      Eu  0.24904004  0.06271132  0.75022496     2.39900
Eu604      Eu  0.24939016  0.50067733  0.81174268     2.39800
O605        O  0.28039800  0.03181548  0.78105160    -0.94400
O606        O  0.21852452  0.46898685  0.78141019    -0.93300
C607        C  0.17194841  0.49958625  0.82904873     1.00800
C608        C  0.32696712  0.50242089  0.82851805     0.99500
C609        C  0.17171756  0.42128378  0.75197926     0.98900
C610        C  0.17054089  0.07775127  0.74939236     1.00900
C611        C  0.32696248  0.07930168  0.75063550     0.99800
C612        C  0.32784031  0.42174500  0.75246785     0.98700
C613        C  0.25010632  0.42296491  0.82909854     0.98700
C614        C  0.25010008  0.07955701  0.82807827     1.01300
H615        H  0.29323139  0.45708646  0.79430890     0.28700
O616        O  0.28060599  0.46946941  0.78130562    -1.06600
H617        H  0.20589798  0.04450171  0.79465904     0.30800
O618        O  0.21861489  0.03190049  0.78198489    -1.09100
O619        O  0.19889836  0.16376388  0.00256590    -0.81700
O620        O  0.19962867  0.33808776  0.00032293    -0.83200
O621        O  0.16142881  0.25112004  0.54831415    -0.80300
O622        O  0.16238235  0.25048902  0.95014131    -0.78600
O623        O  0.19909702  0.25041923  0.91314176    -0.80400
O624        O  0.19735915  0.25116120  0.58609503    -0.81400
O625        O  0.16296082  0.30101884  0.99972175    -0.82700
O626        O  0.16247971  0.20104441  0.00115253    -0.83000
Eu627      Eu  0.18810562  0.25092173  0.99984461     2.39200
O628        O  0.21850324  0.28204696  0.96853254    -0.90500
O629        O  0.21824929  0.21951696  0.53138482    -0.94100
C630        C  0.17090688  0.17276100  0.00229117     1.00600
C631        C  0.17161492  0.32925425  0.00002331     1.00400
C632        C  0.16947930  0.25123678  0.57675144     1.00400
C633        C  0.17104869  0.25036369  0.92192548     0.98200
H634        H  0.20481903  0.29500875  0.54302547     0.28000
O635        O  0.21795053  0.28228489  0.53089412    -1.02900
H636        H  0.20561106  0.20649807  0.95641511     0.28000
O637        O  0.21839918  0.21926362  0.96893476    -1.05400
O638        O  0.29894570  0.33838628  0.99995473    -0.82600
O639        O  0.29866422  0.16284820  0.99995375    -0.82200
O640        O  0.24701445  0.30172487  0.58684525    -0.80600
O641        O  0.24916387  0.30064674  0.91253531    -0.84000
O642        O  0.24841258  0.20032017  0.91278739    -0.81800
O643        O  0.24786904  0.20116588  0.58812612    -0.80500
O644        O  0.33465943  0.25405900  0.55357560    -0.82000
O645        O  0.33618665  0.24919200  0.95069360    -0.83900
O646        O  0.29719532  0.25272202  0.58988823    -0.80600
O647        O  0.29964702  0.24956115  0.91342198    -0.83300
O648        O  0.24836582  0.33877879  0.54990108    -0.79100
O649        O  0.25007269  0.16406598  0.55118945    -0.79100
O650        O  0.24913551  0.16340225  0.95005197    -0.78700
O651        O  0.24851839  0.33758577  0.94970614    -0.82200
O652        O  0.33551348  0.30119121  0.00065310    -0.81700
O653        O  0.33537514  0.19990432  0.00105073    -0.80000
Eu654      Eu  0.24945091  0.31273504  0.99992293     2.39800
Eu655      Eu  0.24912942  0.18855478  0.00054046     2.39600
Eu656      Eu  0.24822526  0.25125160  0.56264278     2.38400
Eu657      Eu  0.24931969  0.25046502  0.93798621     2.39900
Eu658      Eu  0.31099195  0.25053289  0.00058327     2.39800
O659        O  0.27999677  0.21956650  0.96945333    -0.94400
O660        O  0.27978975  0.28244931  0.53236120    -0.93300
C661        C  0.32691688  0.32949093  0.00043639     1.00800
C662        C  0.32667786  0.17165645  0.00036789     0.99500
C663        C  0.24751818  0.32989965  0.57805009     0.98900
C664        C  0.24878559  0.32884342  0.92149341     1.00900
C665        C  0.24867271  0.17219575  0.92180969     0.99800
C666        C  0.24892078  0.17294606  0.57933635     0.98700
C667        C  0.32538065  0.25402508  0.58163926     0.98700
C668        C  0.32763608  0.24920367  0.92243767     1.01300
H669        H  0.29266120  0.20785068  0.54572231     0.28700
O670        O  0.28021830  0.22028845  0.53258808    -1.06600
H671        H  0.29307760  0.29413027  0.95626986     0.30800
O672        O  0.28039167  0.28150696  0.96901040    -1.09100
C673        C  0.23735937  0.13263739  0.65508843    -0.14900
C674        C  0.24630688  0.10258167  0.64792149     0.07300
C675        C  0.25619534  0.09589173  0.61807930    -0.14900
C676        C  0.25740558  0.11885214  0.59593248    -0.14900
C677        C  0.24852155  0.14893365  0.60310049     0.07300
C678        C  0.23855850  0.15561573  0.63292210    -0.14900
H679        H  0.22941585  0.13841486  0.67784775     0.11200
H680        H  0.26354585  0.07302005  0.61196010     0.11200
H681        H  0.26548344  0.11305399  0.57322574     0.11200
H682        H  0.23134833  0.17852673  0.63905838     0.11200
C683        C  0.25703892  0.40585724  0.61820840    -0.14900
C684        C  0.25111310  0.39778529  0.64878012     0.07300
C685        C  0.24331725  0.36743355  0.65578691    -0.14900
C686        C  0.24150532  0.34555705  0.63265729    -0.14900
C687        C  0.24767858  0.35354462  0.60211386     0.07300
C688        C  0.25522901  0.38397388  0.59507269    -0.14900
H689        H  0.26312926  0.42909781  0.61210331     0.11200
H690        H  0.23824041  0.36061884  0.67907539     0.11200
H691        H  0.23532143  0.32234307  0.63875822     0.11200
H692        H  0.26021691  0.39081029  0.57177207     0.11200
C693        C  0.25996764  0.36935169  0.84588231    -0.14900
C694        C  0.25041652  0.39921139  0.85297731     0.07300
C695        C  0.24065081  0.40591774  0.88284132    -0.14900
C696        C  0.23995788  0.38299539  0.90506809    -0.14900
C697        C  0.24910927  0.35298598  0.89785630     0.07300
C698        C  0.25924215  0.34644160  0.86807662    -0.14900
H699        H  0.26807483  0.36366805  0.82315554     0.11200
H700        H  0.23306798  0.42872965  0.88890887     0.11200
H701        H  0.23196740  0.38870609  0.92782690     0.11200
H702        H  0.26690073  0.32366641  0.86198760     0.11200
C703        C  0.23255493  0.13008251  0.84799073    -0.14900
C704        C  0.24984086  0.10333975  0.85192211     0.07300
C705        C  0.26644261  0.09924152  0.87905572    -0.14900
C706        C  0.26579218  0.12155619  0.90194793    -0.14900
C707        C  0.24863288  0.14834734  0.89799049     0.07300
C708        C  0.23196052  0.15244036  0.87086908    -0.14900
H709        H  0.21921046  0.13348576  0.82741707     0.11200
H710        H  0.28016320  0.07891590  0.88240934     0.11200
H711        H  0.27910407  0.11813885  0.92253829     0.11200
H712        H  0.21828021  0.17279705  0.86752570     0.11200
C713        C  0.40398113  0.11781226  0.74407646    -0.14900
C714        C  0.39685481  0.14852408  0.75050834     0.07300
C715        C  0.36647976  0.15631174  0.75691056    -0.14900
C716        C  0.34379266  0.13389873  0.75697576    -0.14900
C717        C  0.35094484  0.10316498  0.75063412     0.07300
C718        C  0.38130979  0.09541057  0.74415882    -0.14900
H719        H  0.42708722  0.11104171  0.73881726     0.11200
H720        H  0.36020725  0.17972670  0.76210747     0.11200
H721        H  0.32067556  0.14064849  0.76220821     0.11200
H722        H  0.38759546  0.07200604  0.73893207     0.11200
C723        C  0.40570473  0.38438026  0.75173381    -0.14900
C724        C  0.39825531  0.35312142  0.75301966     0.07300
C725        C  0.36746225  0.34466214  0.75519136    -0.14900
C726        C  0.34463327  0.36687553  0.75549133    -0.14900
C727        C  0.35202794  0.39811455  0.75354590     0.07300
C728        C  0.38286926  0.40660200  0.75205201    -0.14900
H729        H  0.42917166  0.39173868  0.75022486     0.11200
H730        H  0.36088254  0.32080478  0.75653796     0.11200
H731        H  0.32117133  0.35950248  0.75698709     0.11200
H732        H  0.38944776  0.43046051  0.75073898     0.11200
C733        C  0.13055960  0.15435362  0.74340805    -0.14900
C734        C  0.10000639  0.14630610  0.74845848     0.07300
C735        C  0.09275277  0.11530029  0.75324970    -0.14900
C736        C  0.11559336  0.09300362  0.75333184    -0.14900
C737        C  0.14620709  0.10120906  0.74868453     0.07300
C738        C  0.15334790  0.13210871  0.74349690    -0.14900
H739        H  0.13696875  0.17794566  0.73934919     0.11200
H740        H  0.06947715  0.10826709  0.75725223     0.11200
H741        H  0.10925797  0.06938295  0.75737063     0.11200
H742        H  0.17660693  0.13919987  0.73950255     0.11200
C743        C  0.09474395  0.38201672  0.75553640    -0.14900
C744        C  0.10262283  0.35101131  0.75206725     0.07300
C745        C  0.13352073  0.34323367  0.74908552    -0.14900
C746        C  0.15592938  0.36596474  0.74934103    -0.14900
C747        C  0.14800181  0.39703411  0.75250509     0.07300
C748        C  0.11712059  0.40471985  0.75576282    -0.14900
H749        H  0.07121202  0.38885748  0.75807440     0.11200
H750        H  0.14044644  0.31959060  0.74635709     0.11200
H751        H  0.17946715  0.35916287  0.74676235     0.11200
H752        H  0.11014437  0.42834990  0.75843903     0.11200
C753        C  0.40174845  0.26298423  0.62079556    -0.14900
C754        C  0.39517167  0.25374060  0.65085440     0.07300
C755        C  0.36505085  0.24587392  0.65839458    -0.14900
C756        C  0.34216936  0.24662993  0.63615792    -0.14900
C757        C  0.34895512  0.25513832  0.60588088     0.07300
C758        C  0.37891131  0.26374716  0.59860634    -0.14900
H759        H  0.42458309  0.26967902  0.61436772     0.11200
H760        H  0.35921071  0.23867258  0.68138219     0.11200
H761        H  0.31933338  0.23988580  0.64252621     0.11200
H762        H  0.38481408  0.27091693  0.57562697     0.11200
C763        C  0.13036147  0.24974978  0.65416755    -0.14900
C764        C  0.09944810  0.25155867  0.64620565     0.07300
C765        C  0.09166540  0.25357659  0.61498273    -0.14900
C766        C  0.11427960  0.25353414  0.59236441    -0.14900
C767        C  0.14520561  0.25151797  0.60044547     0.07300
C768        C  0.15288186  0.24973440  0.63164466    -0.14900
H769        H  0.13729110  0.24819572  0.67790951     0.11200
H770        H  0.06809889  0.25512658  0.60796874     0.11200
H771        H  0.10750403  0.25507411  0.56857360     0.11200
H772        H  0.17640255  0.24816379  0.63880280     0.11200
C773        C  0.13258553  0.25201553  0.84421723    -0.14900
C774        C  0.10165854  0.25046018  0.85220282     0.07300
C775        C  0.09376554  0.24871374  0.88336770    -0.14900
C776        C  0.11623178  0.24853200  0.90596995    -0.14900
C777        C  0.14716596  0.25017039  0.89797232     0.07300
C778        C  0.15505359  0.25182159  0.86682083    -0.14900
H779        H  0.13951389  0.25341708  0.82046513     0.11200
H780        H  0.07018800  0.24738067  0.89038566     0.11200
H781        H  0.10929588  0.24710634  0.92972058     0.11200
H782        H  0.17863644  0.25310000  0.85981568     0.11200
C783        C  0.40528443  0.25139063  0.88478138    -0.14900
C784        C  0.39773796  0.24903157  0.85360765     0.07300
C785        C  0.36690194  0.24695970  0.84527562    -0.14900
C786        C  0.34417963  0.24700250  0.86757080    -0.14900
C787        C  0.35172142  0.24911019  0.89875589     0.07300
C788        C  0.38254285  0.25143558  0.90709541    -0.14900
H789        H  0.42876571  0.25333037  0.89199239     0.11200
H790        H  0.36022494  0.24521307  0.82146882     0.11200
H791        H  0.32069602  0.24529910  0.86030901     0.11200
H792        H  0.38917688  0.25339720  0.93089757     0.11200
C793        C  0.36691112  0.40819943  0.50678367    -0.14900
C794        C  0.39762371  0.39965870  0.50356166     0.07300
C795        C  0.40472972  0.36846555  0.50041553    -0.14900
C796        C  0.38178391  0.34637306  0.50025432    -0.14900
C797        C  0.35105195  0.35480214  0.50321260     0.07300
C798        C  0.34388341  0.38603945  0.50654719    -0.14900
H799        H  0.36059132  0.43202834  0.50938791     0.11200
H800        H  0.42807153  0.36102054  0.49779631     0.11200
H801        H  0.38821457  0.32259364  0.49752634     0.11200
H802        H  0.32049643  0.39338821  0.50902654     0.11200
C803        C  0.36653765  0.09470685  0.50955442    -0.14900
C804        C  0.39676500  0.10175362  0.50175923     0.07300
C805        C  0.40417581  0.13228538  0.49470654    -0.14900
C806        C  0.38195021  0.15516889  0.49520149    -0.14900
C807        C  0.35168792  0.14813828  0.50271615     0.07300
C808        C  0.34426402  0.11762662  0.51000869    -0.14900
H809        H  0.36009201  0.07151079  0.51544706     0.11200
H810        H  0.42718543  0.13853710  0.48847503     0.11200
H811        H  0.38843749  0.17834286  0.48927684     0.11200
H812        H  0.32122155  0.11144180  0.51619151     0.11200
C813        C  0.13163108  0.40448972  0.49002301    -0.14900
C814        C  0.10128819  0.39648284  0.49626019     0.07300
C815        C  0.09393614  0.36546928  0.50063333    -0.14900
C816        C  0.11658807  0.34311748  0.49971738    -0.14900
C817        C  0.14708543  0.35132057  0.49454967     0.07300
C818        C  0.15427195  0.38215618  0.48915653    -0.14900
H819        H  0.13800288  0.42810002  0.48600317     0.11200
H820        H  0.07076639  0.35847380  0.50527274     0.11200
H821        H  0.11025827  0.31950097  0.50379936     0.11200
H822        H  0.17746374  0.38912802  0.48458237     0.11200
C823        C  0.09369446  0.13546401  0.49166831    -0.14900
C824        C  0.10067906  0.10462327  0.49765028     0.07300
C825        C  0.13118177  0.09650924  0.50300206    -0.14900
C826        C  0.15403250  0.11865969  0.50322338    -0.14900
C827        C  0.14704148  0.14954832  0.49803046     0.07300
C828        C  0.11663322  0.15769020  0.49186513    -0.14900
H829        H  0.07053226  0.14245608  0.48698280     0.11200
H830        H  0.13747049  0.07297668  0.50755271     0.11200
H831        H  0.17716083  0.11156164  0.50790437     0.11200
H832        H  0.11049099  0.18126310  0.48728267     0.11200
C833        C  0.36783474  0.99556562  0.90480764    -0.14900
C834        C  0.39842176  0.99976481  0.89641080     0.07300
C835        C  0.40568201  0.00342036  0.86530381    -0.14900
C836        C  0.38280377  0.00317319  0.84314650    -0.14900
C837        C  0.35217651  0.99930028  0.85160840     0.07300
C838        C  0.34498564  0.99532010  0.88267964    -0.14900
H839        H  0.36144844  0.99240306  0.92854503     0.11200
H840        H  0.42900171  0.00670870  0.85805437     0.11200
H841        H  0.38914600  0.00631685  0.81939484     0.11200
H842        H  0.32168040  0.99202536  0.88997513     0.11200
C843        C  0.09443247  0.99309087  0.86653751    -0.14900
C844        C  0.10129040  0.99969328  0.89729352     0.07300
C845        C  0.13150063  0.00656055  0.90526604    -0.14900
C846        C  0.15439196  0.00658924  0.88311389    -0.14900
C847        C  0.14761154  0.99980774  0.85243321     0.07300
C848        C  0.11733652  0.99313307  0.84436975    -0.14900
H849        H  0.07140994  0.98767058  0.85959134     0.11200
H850        H  0.13750580  0.01211182  0.92866935     0.11200
H851        H  0.17738525  0.01215156  0.89002938     0.11200
H852        H  0.11131052  0.98773540  0.82093048     0.11200
C853        C  0.13152776  0.99947735  0.59658290    -0.14900
C854        C  0.10091722  0.00381689  0.60472995     0.07300
C855        C  0.09355884  0.00825277  0.63577153    -0.14900
C856        C  0.11634540  0.00815314  0.65809072    -0.14900
C857        C  0.14693114  0.00347085  0.64984223     0.07300
C858        C  0.15423732  0.99934194  0.61883465    -0.14900
H859        H  0.13802070  0.99585370  0.57293948     0.11200
H860        H  0.07022352  0.01181701  0.64284180     0.11200
H861        H  0.10995226  0.01165080  0.68178795     0.11200
H862        H  0.17752521  0.99563662  0.61168296     0.11200
C863        C  0.40501488  0.00380665  0.63357176    -0.14900
C864        C  0.39759355  0.99905142  0.60262143     0.07300
C865        C  0.36689614  0.99478184  0.59461361    -0.14900
C866        C  0.34417277  0.99545108  0.61697791    -0.14900
C867        C  0.35158958  0.00033365  0.64790407     0.07300
C868        C  0.38230246  0.00447776  0.65592275    -0.14900
H869        H  0.42838322  0.00729288  0.64057125     0.11200
H870        H  0.36035218  0.99089921  0.57102137     0.11200
H871        H  0.32079643  0.99195415  0.61001357     0.11200
H872        H  0.38886177  0.00838541  0.67950769     0.11200
C873        C  0.48545417  0.13070048  0.90291479    -0.14900
C874        C  0.99845379  0.10185562  0.89676301     0.07300
C875        C  0.01135567  0.09616820  0.86790846    -0.14900
C876        C  0.01115817  0.11883934  0.84543738    -0.14900
C877        C  0.99809295  0.14753451  0.85149893     0.07300
C878        C  0.48530177  0.15333903  0.88044486    -0.14900
H879        H  0.47533149  0.13566788  0.92497985     0.11200
H880        H  0.02198427  0.07436295  0.86287330     0.11200
H881        H  0.02165841  0.11410935  0.82349751     0.11200
H882        H  0.47509622  0.17532385  0.88560558     0.11200
C883        C  0.98429486  0.34761951  0.88142087    -0.14900
C884        C  0.99905419  0.35217661  0.85330719     0.07300
C885        C  0.51472331  0.37966634  0.84820738    -0.14900
C886        C  0.51551689  0.40239629  0.87062452    -0.14900
C887        C  0.00066430  0.39792467  0.89856609     0.07300
C888        C  0.98512042  0.37033726  0.90389891    -0.14900
H889        H  0.97193599  0.32663246  0.88588700     0.11200
H890        H  0.52659334  0.38349467  0.82681161     0.11200
H891        H  0.52788821  0.42336778  0.86611469     0.11200
H892        H  0.97327420  0.36651040  0.92530784     0.11200
C893        C  0.48686297  0.40609622  0.63348510    -0.14900
C894        C  0.99712147  0.39890967  0.60356872     0.07300
C895        C  0.00762683  0.36922016  0.59726142    -0.14900
C896        C  0.00780519  0.34695058  0.62009413    -0.14900
C897        C  0.99739744  0.35385102  0.64971007     0.07300
C898        C  0.48695983  0.38372390  0.65635927    -0.14900
H899        H  0.47887545  0.42888687  0.63907025     0.11200
H900        H  0.01627505  0.36332242  0.57479557     0.11200
H901        H  0.01653110  0.32439974  0.61464398     0.11200
H902        H  0.47899765  0.38969477  0.67906329     0.11200
C903        C  0.99619409  0.13562273  0.59322372    -0.14900
C904        C  0.99618022  0.10449865  0.60151541     0.07300
C905        C  0.49506561  0.09671073  0.63262755    -0.14900
C906        C  0.49524155  0.11935620  0.65504732    -0.14900
C907        C  0.99621476  0.15036121  0.64686125     0.07300
C908        C  0.99623665  0.15834697  0.61568940    -0.14900
H909        H  0.99658514  0.14247593  0.56939880     0.11200
H910        H  0.49456255  0.07298475  0.63980368     0.11200
H911        H  0.49482538  0.11239125  0.67883907     0.11200
H912        H  0.99665770  0.18210573  0.60860384     0.11200
O913        O  0.00091707  0.55091616  0.08701390    -0.81700
O914        O  0.99983857  0.54967801  0.41297159    -0.83200
O915        O  0.04890797  0.58829254  0.00017168    -0.80300
O916        O  0.44975497  0.58834038  0.99862508    -0.78600
O917        O  0.41325758  0.55112531  0.99762445    -0.80400
O918        O  0.08538653  0.55104103  0.00103069    -0.81400
O919        O  0.00015913  0.58667867  0.45006273    -0.82700
O920        O  0.00014362  0.58781771  0.04993964    -0.83000
Eu921      Eu  0.99950207  0.56259953  0.99980702     2.42000
O922        O  0.47109582  0.53114867  0.46941783    -0.90500
O923        O  0.03059101  0.53208519  0.03126085    -0.94100
C924        C  0.00099418  0.57905887  0.07814121     1.00600
C925        C  0.99968668  0.57785403  0.42188515     1.00400
C926        C  0.07684287  0.57931287  0.00055491     1.00400
C927        C  0.42177879  0.57940981  0.99775273     0.98200
H928        H  0.04506310  0.54358009  0.45598620     0.28000
O929        O  0.03239194  0.53105240  0.46884037    -1.02900
H930        H  0.45570077  0.54478413  0.04368072     0.28000
O931        O  0.46836233  0.53196859  0.03111854    -1.05400
O932        O  0.00132128  0.95001149  0.41358537    -0.82600
O933        O  0.99586514  0.95138845  0.08758288    -0.82200
O934        O  0.08785109  0.49886073  0.44969330    -0.80600
O935        O  0.41442405  0.50057575  0.45108121    -0.84000
O936        O  0.41283772  0.50093716  0.04976440    -0.81800
O937        O  0.08646485  0.49972636  0.05042120    -0.80500
O938        O  0.04964141  0.91334405  0.00151282    -0.82000
O939        O  0.44989523  0.91287797  0.00006750    -0.83900
O940        O  0.08606141  0.95069262  0.00076195    -0.80600
O941        O  0.41292420  0.94967083  0.99955843    -0.83300
O942        O  0.05132831  0.49848815  0.41244807    -0.79100
O943        O  0.04993539  0.50045455  0.08758215    -0.79100
O944        O  0.44956470  0.50049061  0.08684560    -0.78700
O945        O  0.45109716  0.49982104  0.41398589    -0.82200
O946        O  0.00100137  0.91311577  0.45074930    -0.81700
O947        O  0.99690134  0.91427203  0.05068958    -0.80000
Eu948      Eu  0.00128712  0.49970336  0.43823527     2.39800
Eu949      Eu  0.99979066  0.50089314  0.06207047     2.39600
Eu950      Eu  0.06107700  0.50050816  0.00044726     2.38400
Eu951      Eu  0.43798410  0.50077425  0.99955968     2.39900
Eu952      Eu  0.99944853  0.93863423  0.00035050     2.39800
O953        O  0.46790128  0.96956755  0.03062379    -0.94400
O954        O  0.03198054  0.96990368  0.47024878    -0.93300
C955        C  0.00105909  0.92185982  0.42246526     1.00800
C956        C  0.99575534  0.92314400  0.07883994     0.99500
C957        C  0.07936942  0.49824215  0.42139495     0.98900
C958        C  0.42308755  0.50035288  0.42285819     1.00900
C959        C  0.42155751  0.50066956  0.07800426     0.99800
C960        C  0.07799096  0.49988849  0.07870498     0.98700
C961        C  0.07766738  0.92234236  0.00141895     0.98700
C962        C  0.42181253  0.92146730  0.00006184     1.01300
H963        H  0.04251131  0.95751003  0.04454788     0.28700
O964        O  0.03003371  0.96995440  0.03147700    -1.06600
H965        H  0.45736485  0.95552920  0.45730534     0.30800
O966        O  0.46983103  0.96859265  0.46984123    -1.09100
O967        O  0.00035652  0.69999985  0.16354204    -0.81700
O968        O  0.00160807  0.69995186  0.33787921    -0.83200
O969        O  0.05037021  0.66264481  0.24963051    -0.80300
O970        O  0.45023070  0.66286730  0.25344524    -0.78600
O971        O  0.41350336  0.69988224  0.25340297    -0.80400
O972        O  0.08680856  0.69994375  0.24903462    -0.81400
O973        O  0.00104320  0.66293329  0.30082026    -0.82700
O974        O  0.00106973  0.66277078  0.20037127    -0.83000
Eu975      Eu  0.00021961  0.68778379  0.25060241     2.39200
O976        O  0.46965937  0.71890394  0.28159295    -0.90500
O977        O  0.02999778  0.71914550  0.21897062    -0.94100
C978        C  0.00121920  0.67178827  0.17222363     1.00600
C979        C  0.00140693  0.67173589  0.32902100     1.00400
C980        C  0.07837395  0.67161244  0.24917803     1.00400
C981        C  0.42221025  0.67175221  0.25418294     0.98200
H982        H  0.04432994  0.70622770  0.29407753     0.28000
O983        O  0.03136284  0.71875342  0.28150635    -1.02900
H984        H  0.45623472  0.70523311  0.20704616     0.28000
O985        O  0.46886100  0.71829559  0.21942505    -1.05400
O986        O  0.99863378  0.80057958  0.33726167    -0.82600
O987        O  0.99821916  0.80088675  0.16331040    -0.82200
O988        O  0.08703982  0.75109111  0.29940913    -0.80600
O989        O  0.41414152  0.74894965  0.30098548    -0.84000
O990        O  0.41225101  0.74686736  0.20081026    -0.81800
O991        O  0.08536092  0.74874748  0.19910237    -0.80500
O992        O  0.04915944  0.83729650  0.25018970    -0.82000
O993        O  0.44840438  0.83632791  0.25087893    -0.83900
O994        O  0.08579275  0.80015773  0.24945490    -0.80600
O995        O  0.41200282  0.79899322  0.25107193    -0.83300
O996        O  0.05088699  0.75190067  0.33698870    -0.79100
O997        O  0.04847699  0.74966223  0.16222164    -0.79100
O998        O  0.44857992  0.74833142  0.16343243    -0.78700
O999        O  0.45096942  0.74812893  0.33791541    -0.82200
O1000       O  0.99949712  0.83756971  0.30017227    -0.81700
O1001       O  0.99804261  0.83789198  0.20037495    -0.80000
Eu1002     Eu  0.00049157  0.75006158  0.31246692     2.39800
Eu1003     Eu  0.99890063  0.75024461  0.18818973     2.39600
Eu1004     Eu  0.06113172  0.74996761  0.24964427     2.38400
Eu1005     Eu  0.43834563  0.74956129  0.25059141     2.39900
Eu1006     Eu  0.99911531  0.81211048  0.25018224     2.39800
O1007       O  0.46779017  0.78135478  0.21889624    -0.94400
O1008       O  0.03059726  0.78121813  0.28088107    -0.93300
C1009       C  0.99889459  0.82878605  0.32837484     1.00800
C1010       C  0.99777016  0.82914510  0.17214840     0.99500
C1011       C  0.07882134  0.75189616  0.32777580     0.98900
C1012       C  0.42293045  0.74829979  0.32915231     1.00900
C1013       C  0.42064972  0.74689930  0.17246947     0.99800
C1014       C  0.07654463  0.74898631  0.17091260     0.98700
C1015       C  0.07718285  0.82839046  0.24979372     0.98700
C1016       C  0.42040358  0.82729945  0.25114461     1.01300
H1017       H  0.04255079  0.79399782  0.20598794     0.28700
O1018       O  0.03009738  0.78129539  0.21884038    -1.06600
H1019       H  0.45634118  0.79327390  0.29433375     0.30800
O1020       O  0.46907155  0.78077398  0.28155276    -1.09100
O1021       O  0.33427546  0.99873864  0.19806227    -0.81700
O1022       O  0.16152439  0.00209182  0.20056695    -0.83200
O1023       O  0.24789188  0.95139522  0.16150486    -0.80300
O1024       O  0.24861017  0.55140274  0.16403924    -0.78600
O1025       O  0.24993236  0.58823118  0.20128957    -0.80400
O1026       O  0.25103316  0.91399165  0.19807191    -0.81400
O1027       O  0.19784978  0.00287606  0.16312369    -0.82700
O1028       O  0.29731715  0.00066084  0.16125410    -0.83000
Eu1029     Eu  0.24812228  0.00110895  0.18781449     2.39200
O1030       O  0.21996226  0.53183999  0.21975518    -0.90500
O1031       O  0.27941773  0.96937554  0.21789723    -0.94100
C1032       C  0.32539776  0.99968422  0.16986183     1.00600
C1033       C  0.16989573  0.00301708  0.17220245     1.00400
C1034       C  0.24986482  0.92317172  0.17003839     1.00400
C1035       C  0.24885547  0.57951283  0.17306199     0.98200
H1036       H  0.20459909  0.95690420  0.20551099     0.28000
O1037       O  0.21744418  0.96931748  0.21836711    -1.02900
H1038       H  0.29417704  0.54524397  0.20698914     0.28000
O1039       O  0.28179353  0.53223431  0.21961617    -1.05400
O1040       O  0.16324477  0.00085271  0.30116949    -0.82600
O1041       O  0.33665137  0.99737137  0.29980303    -0.82200
O1042       O  0.19940187  0.91216881  0.24826302    -0.80600
O1043       O  0.20048650  0.58738712  0.25209693    -0.84000
O1044       O  0.30024717  0.58837281  0.25196832    -0.81800
O1045       O  0.29854031  0.91204364  0.24848009    -0.80500
O1046       O  0.24906113  0.94889713  0.33571575    -0.82000
O1047       O  0.25255037  0.54983806  0.33829514    -0.83900
O1048       O  0.24886292  0.91192764  0.29863624    -0.80600
O1049       O  0.25237390  0.58718725  0.30168888    -0.83300
O1050       O  0.16303576  0.94952036  0.25038011    -0.79100
O1051       O  0.33549572  0.94882846  0.24890869    -0.79100
O1052       O  0.33705290  0.55141724  0.25164242    -0.78700
O1053       O  0.16409093  0.55001969  0.25062758    -0.82200
O1054       O  0.20033272  0.00079231  0.33786673    -0.81700
O1055       O  0.30009633  0.99730904  0.33704676    -0.80000
Eu1056     Eu  0.18761317  0.00037488  0.25053163     2.39800
Eu1057     Eu  0.31109414  0.99930703  0.24934450     2.39600
Eu1058     Eu  0.24890423  0.93791566  0.24876584     2.38400
Eu1059     Eu  0.25071191  0.56263681  0.25123148     2.39900
Eu1060     Eu  0.25004234  0.99934585  0.31186279     2.39800
O1061       O  0.28231714  0.53183584  0.28169338    -0.94400
O1062       O  0.21855786  0.96868177  0.28083503    -0.93300
C1063       C  0.17218384  0.00101573  0.32934977     1.00800
C1064       C  0.32812383  0.99688520  0.32816386     0.99500
C1065       C  0.17146924  0.92116266  0.24926343     0.98900
C1066       C  0.17251654  0.57836690  0.25129752     1.00900
C1067       C  0.32826165  0.57956704  0.25227758     0.99800
C1068       C  0.32663433  0.92064623  0.24882273     0.98700
C1069       C  0.24902930  0.92074227  0.32687608     0.98700
C1070       C  0.25274808  0.57808689  0.32979704     1.01300
H1071       H  0.29267577  0.95512950  0.29258235     0.28700
O1072       O  0.28015522  0.96819173  0.28014843    -1.06600
H1073       H  0.20738915  0.54355851  0.29507576     0.30800
O1074       O  0.22006294  0.53118331  0.28211707    -1.09100
O1075       O  0.20112144  0.66323172  0.50061603    -0.81700
O1076       O  0.20216936  0.83845808  0.49864460    -0.83200
O1077       O  0.16226000  0.75116518  0.04988218    -0.80300
O1078       O  0.16520121  0.75246419  0.44855619    -0.78600
O1079       O  0.20190969  0.75254387  0.41152269    -0.80400
O1080       O  0.19875466  0.75056705  0.08719066    -0.81400
O1081       O  0.16523660  0.80159209  0.49856537    -0.82700
O1082       O  0.16439608  0.70025510  0.49929203    -0.83000
Eu1083     Eu  0.18937646  0.75084126  0.49938871     2.39200
O1084       O  0.22092297  0.78168372  0.46899125    -0.90500
O1085       O  0.21797217  0.71907539  0.03156239    -0.94100
C1086       C  0.17310529  0.67197475  0.49997352     1.00600
C1087       C  0.17407189  0.82981279  0.49832331     1.00400
C1088       C  0.17074762  0.75092398  0.07817730     1.00400
C1089       C  0.17383245  0.75300049  0.42027662     0.98200
H1090       H  0.20618650  0.79425588  0.04390569     0.28000
O1091       O  0.21875988  0.78144200  0.03127509    -1.02900
H1092       H  0.20735254  0.70656728  0.45604235     0.28000
O1093       O  0.22005600  0.71918691  0.46880966    -1.05400
O1094       O  0.30236953  0.83684906  0.50201683    -0.82600
O1095       O  0.30105337  0.66290601  0.50009215    -0.82200
O1096       O  0.25087125  0.80074611  0.08727828    -0.80600
O1097       O  0.25204264  0.80065183  0.41355231    -0.84000
O1098       O  0.25057882  0.69888206  0.41497565    -0.81800
O1099       O  0.24927711  0.70032160  0.08781016    -0.80500
O1100       O  0.33535080  0.74819335  0.05114284    -0.82000
O1101       O  0.33765437  0.74873220  0.45027665    -0.83900
O1102       O  0.29874595  0.74876102  0.08831554    -0.80600
O1103       O  0.30117136  0.74851522  0.41297457    -0.83300
O1104       O  0.24909935  0.83760086  0.05006013    -0.79100
O1105       O  0.24756234  0.66314788  0.05090893    -0.79100
O1106       O  0.25074578  0.66188908  0.45198556    -0.78700
O1107       O  0.25277966  0.83809683  0.45017632    -0.82200
O1108       O  0.33864783  0.79938027  0.50179281    -0.81700
O1109       O  0.33780199  0.69986599  0.49924131    -0.80000
Eu1110     Eu  0.25183723  0.81262824  0.50018430     2.39800
Eu1111     Eu  0.25088084  0.68850895  0.50071553     2.39600
Eu1112     Eu  0.24916488  0.75021092  0.06248389     2.38400
Eu1113     Eu  0.25131289  0.75019102  0.43811971     2.39900
Eu1114     Eu  0.31263743  0.74981950  0.50050953     2.39800
O1115       O  0.28180694  0.71902074  0.46935921    -0.94400
O1116       O  0.28060514  0.78107712  0.03181955    -0.93300
C1117       C  0.33031360  0.82769117  0.50243546     1.00800
C1118       C  0.32915340  0.67165201  0.49933011     0.99500
C1119       C  0.25007460  0.82887130  0.07818984     0.98900
C1120       C  0.25238942  0.82895988  0.42205400     1.00900
C1121       C  0.25065537  0.67067189  0.42387253     0.99800
C1122       C  0.24831510  0.67212691  0.07908384     0.98700
C1123       C  0.32673295  0.74790482  0.07942162     0.98700
C1124       C  0.32913562  0.74830838  0.42199015     1.01300
H1125       H  0.29245081  0.70578528  0.04415425     0.28700
O1126       O  0.27995375  0.71869726  0.03157038    -1.06600
H1127       H  0.29548862  0.79375190  0.45645563     0.30800
O1128       O  0.28255201  0.78126154  0.46906333    -1.09100
C1129       C  0.25839494  0.63312590  0.15567555    -0.14900
C1130       C  0.24816230  0.60336523  0.14922147     0.07300
C1131       C  0.23781193  0.59639903  0.11957675    -0.14900
C1132       C  0.23784350  0.61873856  0.09676697    -0.14900
C1133       C  0.24819581  0.64847392  0.10317595     0.07300
C1134       C  0.25844569  0.65546175  0.13286121    -0.14900
H1135       H  0.26679994  0.63904199  0.17823264     0.11200
H1136       H  0.22954730  0.57369739  0.11402318     0.11200
H1137       H  0.22955174  0.61278402  0.07417839     0.11200
H1138       H  0.26684998  0.67811755  0.13838823     0.11200
C1139       C  0.23424967  0.90337660  0.11881639    -0.14900
C1140       C  0.25064372  0.89947454  0.14609812     0.07300
C1141       C  0.26717451  0.87234272  0.15074975    -0.14900
C1142       C  0.26696442  0.84926446  0.12863912    -0.14900
C1143       C  0.25025541  0.85302271  0.10156793     0.07300
C1144       C  0.23403335  0.88029126  0.09671259    -0.14900
H1145       H  0.22110908  0.92398503  0.11489298     0.11200
H1146       H  0.28033670  0.86905362  0.17145852     0.11200
H1147       H  0.28005920  0.82862017  0.13254333     0.11200
H1148       H  0.22082261  0.88353558  0.07602357     0.11200
C1149       C  0.25388859  0.90572523  0.38187630    -0.14900
C1150       C  0.24971358  0.89714467  0.35109557     0.07300
C1151       C  0.24666478  0.86597306  0.34386179    -0.14900
C1152       C  0.24773610  0.84388813  0.36691407    -0.14900
C1153       C  0.25190891  0.85246745  0.39769406     0.07300
C1154       C  0.25498715  0.88365751  0.40490564    -0.14900
H1155       H  0.25648424  0.92954784  0.38827053     0.11200
H1156       H  0.24334762  0.85859848  0.32041533     0.11200
H1157       H  0.24508043  0.82006280  0.36056537     0.11200
H1158       H  0.25826769  0.89108046  0.42834259     0.11200
C1159       C  0.24904457  0.63267120  0.34636493    -0.14900
C1160       C  0.25284233  0.60168421  0.35400291     0.07300
C1161       C  0.25583425  0.59344491  0.38498920    -0.14900
C1162       C  0.25480450  0.61576860  0.40782538    -0.14900
C1163       C  0.25093613  0.64677149  0.40006575     0.07300
C1164       C  0.24799698  0.65492943  0.36913872    -0.14900
H1165       H  0.24655832  0.63979580  0.32275092     0.11200
H1166       H  0.25891422  0.56975917  0.39163996     0.11200
H1167       H  0.25725024  0.60873434  0.43147750     0.11200
H1168       H  0.24485921  0.67858274  0.36241032     0.11200
C1169       C  0.40575624  0.61696264  0.25397519    -0.14900
C1170       C  0.39819148  0.64814433  0.25532067     0.07300
C1171       C  0.36733665  0.65662971  0.25655578    -0.14900
C1172       C  0.34456660  0.63442120  0.25563140    -0.14900
C1173       C  0.35217321  0.60325710  0.25358808     0.07300
C1174       C  0.38301567  0.59478240  0.25305088    -0.14900
H1175       H  0.42926318  0.60963295  0.25313422     0.11200
H1176       H  0.36068881  0.68047420  0.25783880     0.11200
H1177       H  0.32104263  0.64171648  0.25635041     0.11200
H1178       H  0.38970542  0.57095822  0.25165844     0.11200
C1179       C  0.40397265  0.88230370  0.25100070    -0.14900
C1180       C  0.39626282  0.85107459  0.25129458     0.07300
C1181       C  0.36529928  0.84288103  0.25116739    -0.14900
C1182       C  0.34267394  0.86538068  0.25028343    -0.14900
C1183       C  0.35046382  0.89661126  0.24959869     0.07300
C1184       C  0.38139581  0.90475547  0.25014298    -0.14900
H1185       H  0.42753057  0.88950790  0.25121868     0.11200
H1186       H  0.35847861  0.81905659  0.25153307     0.11200
H1187       H  0.31908956  0.85825547  0.25009035     0.11200
H1188       H  0.38828876  0.92855922  0.24983061     0.11200
C1189       C  0.13323116  0.65586331  0.25330188    -0.14900
C1190       C  0.10252079  0.64777926  0.24923182     0.07300
C1191       C  0.09510677  0.61664012  0.24573502    -0.14900
C1192       C  0.11775534  0.59416636  0.24651878    -0.14900
C1193       C  0.14842892  0.60222808  0.25082020     0.07300
C1194       C  0.15587482  0.63338672  0.25413464    -0.14900
H1195       H  0.13982156  0.67959049  0.25613384     0.11200
H1196       H  0.07174875  0.60955691  0.24235902     0.11200
H1197       H  0.11117167  0.57044509  0.24362560     0.11200
H1198       H  0.17923422  0.64048717  0.25746986     0.11200
C1199       C  0.09375550  0.88337859  0.24974409    -0.14900
C1200       C  0.10128375  0.85211434  0.24955676     0.07300
C1201       C  0.13216665  0.84369856  0.24901967    -0.14900
C1202       C  0.15493593  0.86601500  0.24878034    -0.14900
C1203       C  0.14739024  0.89732651  0.24912827     0.07300
C1204       C  0.11651647  0.90568672  0.24951707    -0.14900
H1205       H  0.07023690  0.89070644  0.25009059     0.11200
H1206       H  0.13884490  0.81982947  0.24881141     0.11200
H1207       H  0.17845244  0.85867606  0.24843019     0.11200
H1208       H  0.10983552  0.92954949  0.24970089     0.11200
C1209       C  0.40400358  0.75063637  0.11770655    -0.14900
C1210       C  0.39665423  0.74547341  0.14860239     0.07300
C1211       C  0.36614610  0.73966780  0.15639800    -0.14900
C1212       C  0.34342774  0.74014759  0.13395629    -0.14900
C1213       C  0.35073287  0.74635932  0.10321753     0.07300
C1214       C  0.38134851  0.75111412  0.09532913    -0.14900
H1215       H  0.42725574  0.75496407  0.11079960     0.11200
H1216       H  0.35974642  0.73504169  0.17989004     0.11200
H1217       H  0.32013696  0.73579730  0.14073008     0.11200
H1218       H  0.38784186  0.75575981  0.07186695     0.11200
C1219       C  0.13098025  0.74344898  0.15485845    -0.14900
C1220       C  0.10045214  0.74893677  0.14699466     0.07300
C1221       C  0.09322754  0.75513945  0.11626306    -0.14900
C1222       C  0.11604608  0.75608394  0.09398926    -0.14900
C1223       C  0.14660720  0.75070557  0.10190151     0.07300
C1224       C  0.15377246  0.74441061  0.13261582    -0.14900
H1225       H  0.13734774  0.73837249  0.17826732     0.11200
H1226       H  0.06997796  0.75961310  0.10942902     0.11200
H1227       H  0.10971449  0.76113438  0.07056543     0.11200
H1228       H  0.17700545  0.73992585  0.13949285     0.11200
C1229       C  0.13400800  0.75469256  0.34284051    -0.14900
C1230       C  0.10318615  0.75275186  0.35135382     0.07300
C1231       C  0.09591561  0.75149634  0.38266302    -0.14900
C1232       C  0.11880610  0.75198802  0.40485977    -0.14900
C1233       C  0.14965112  0.75365590  0.39641701     0.07300
C1234       C  0.15694958  0.75518190  0.36508435    -0.14900
H1235       H  0.14049143  0.75577045  0.31894338     0.11200
H1236       H  0.07248654  0.74991840  0.39012072     0.11200
H1237       H  0.11223616  0.75073733  0.42872122     0.11200
H1238       H  0.18040855  0.75656160  0.35768579     0.11200
C1239       C  0.40658315  0.74442644  0.38403469    -0.14900
C1240       C  0.39903203  0.74803462  0.35298042     0.07300
C1241       C  0.36831055  0.75167417  0.34483919    -0.14900
C1242       C  0.34565829  0.75159381  0.36718825    -0.14900
C1243       C  0.35316460  0.74792046  0.39824515     0.07300
C1244       C  0.38390182  0.74435519  0.40641339    -0.14900
H1245       H  0.43001625  0.74159418  0.39110425     0.11200
H1246       H  0.36167805  0.75476903  0.32115923     0.11200
H1247       H  0.32226252  0.75464894  0.36008779     0.11200
H1248       H  0.39049919  0.74146765  0.43012803     0.11200
C1249       C  0.36751945  0.90496869  0.00615475    -0.14900
C1250       C  0.39814073  0.89727596  0.00106880     0.07300
C1251       C  0.40592525  0.86621903  0.99756675    -0.14900
C1252       C  0.38356378  0.84347792  0.99879488    -0.14900
C1253       C  0.35285305  0.85125575  0.00340449     0.07300
C1254       C  0.34518574  0.88225569  0.00738482    -0.14900
H1255       H  0.36073211  0.92859944  0.00929455     0.11200
H1256       H  0.42928954  0.85943899  0.99364819     0.11200
H1257       H  0.39032680  0.81983876  0.99565500     0.11200
H1258       H  0.32183060  0.88907686  0.01126923     0.11200
C1259       C  0.36686295  0.59472115  0.99506367    -0.14900
C1260       C  0.39766984  0.60314806  0.99725962     0.07300
C1261       C  0.40506786  0.63437781  0.99954476    -0.14900
C1262       C  0.38221477  0.65658135  0.99977317    -0.14900
C1263       C  0.35138830  0.64811508  0.99775010     0.07300
C1264       C  0.34400840  0.61692445  0.99531931    -0.14900
H1265       H  0.36030155  0.57088899  0.99325430     0.11200
H1266       H  0.42851543  0.64172168  0.00140225     0.11200
H1267       H  0.38877448  0.68040114  0.00178970     0.11200
H1268       H  0.32054484  0.60959125  0.99365894     0.11200
C1269       C  0.13287844  0.90700419  0.00102627    -0.14900
C1270       C  0.10197215  0.89859140  0.00197795     0.07300
C1271       C  0.09461892  0.86727161  0.00305864    -0.14900
C1272       C  0.11747202  0.84500269  0.00248831    -0.14900
C1273       C  0.14833575  0.85339102  0.00086568     0.07300
C1274       C  0.15575522  0.88471197  0.00045291    -0.14900
H1275       H  0.13948062  0.93088398  0.00044706     0.11200
H1276       H  0.07114488  0.85986792  0.00412301     0.11200
H1277       H  0.11084253  0.82113301  0.00322268     0.11200
H1278       H  0.17924935  0.89207392  0.99952315     0.11200
C1279       C  0.09353722  0.63398428  0.99526110    -0.14900
C1280       C  0.10088061  0.60300332  0.99990116     0.07300
C1281       C  0.13158432  0.59472510  0.00322527    -0.14900
C1282       C  0.15440084  0.61691564  0.00226941    -0.14900
C1283       C  0.14706172  0.64798249  0.99815597     0.07300
C1284       C  0.11637538  0.65619837  0.99431597    -0.14900
H1285       H  0.07014464  0.64112490  0.99226650     0.11200
H1286       H  0.13807380  0.57106472  0.00674143     0.11200
H1287       H  0.17778064  0.60971445  0.00519812     0.11200
H1288       H  0.10992439  0.67985828  0.99074347     0.11200
C1289       C  0.36874382  0.50684666  0.40653352    -0.14900
C1290       C  0.39925095  0.50094480  0.39891155     0.07300
C1291       C  0.40685569  0.49602979  0.36804225    -0.14900
C1292       C  0.38448507  0.49673881  0.34534035    -0.14900
C1293       C  0.35390145  0.50227624  0.35293334     0.07300
C1294       C  0.34634676  0.50754038  0.38381098    -0.14900
H1295       H  0.36213160  0.51107393  0.43004985     0.11200
H1296       H  0.43011958  0.49141176  0.36135433     0.11200
H1297       H  0.39115479  0.49255752  0.32183835     0.11200
H1298       H  0.32308431  0.51219560  0.39047342     0.11200
C1299       C  0.09706207  0.48855078  0.36741860    -0.14900
C1300       C  0.10366049  0.49709911  0.39774937     0.07300
C1301       C  0.13391472  0.50425110  0.40547448    -0.14900
C1302       C  0.15684823  0.50357276  0.38332163    -0.14900
C1303       C  0.15010155  0.49580273  0.35284718     0.07300
C1304       C  0.12003085  0.48783052  0.34525008    -0.14900
H1305       H  0.07413775  0.48236524  0.36079960     0.11200
H1306       H  0.13985522  0.51086209  0.42862014     0.11200
H1307       H  0.17975465  0.50978975  0.38998060     0.11200
H1308       H  0.11415649  0.48121655  0.32208446     0.11200
C1309       C  0.13310329  0.49705641  0.09403131    -0.14900
C1310       C  0.10227798  0.49950573  0.10244775     0.07300
C1311       C  0.09505331  0.50199327  0.13370286    -0.14900
C1312       C  0.11800560  0.50232947  0.15591070    -0.14900
C1313       C  0.14883841  0.50010651  0.14752895     0.07300
C1314       C  0.15606960  0.49741681  0.11624937    -0.14900
H1315       H  0.13958961  0.49493506  0.07020239     0.11200
H1316       H  0.07162574  0.50391860  0.14108208     0.11200
H1317       H  0.11150637  0.50447502  0.17972972     0.11200
H1318       H  0.17950020  0.49551872  0.10887064     0.11200
C1319       C  0.40552886  0.50621292  0.13277099    -0.14900
C1320       C  0.39780297  0.50075753  0.10200584     0.07300
C1321       C  0.36717563  0.49553722  0.09443311    -0.14900
C1322       C  0.34476495  0.49597239  0.11707678    -0.14900
C1323       C  0.35247412  0.50164038  0.14780417     0.07300
C1324       C  0.38312908  0.50666845  0.15539913    -0.14900
H1325       H  0.42889195  0.51039325  0.13940162     0.11200
H1326       H  0.36048549  0.49096425  0.07100461     0.11200
H1327       H  0.32141282  0.49165812  0.11049156     0.11200
H1328       H  0.38986441  0.51112388  0.17883768     0.11200
C1329       C  0.50733958  0.63224388  0.40585186    -0.14900
C1330       C  0.99959404  0.60186970  0.39817158     0.07300
C1331       C  0.99371222  0.59450674  0.36743501    -0.14900
C1332       C  0.99458609  0.61717245  0.34497790    -0.14900
C1333       C  0.00122851  0.64769247  0.35279812     0.07300
C1334       C  0.50812861  0.65489271  0.38337145    -0.14900
H1335       H  0.51280279  0.63852365  0.42921079     0.11200
H1336       H  0.98837774  0.57124446  0.36069613     0.11200
H1337       H  0.98976311  0.61078718  0.32150710     0.11200
H1338       H  0.51403638  0.67804765  0.38998666     0.11200
C1339       C  0.98806225  0.84631267  0.38186184    -0.14900
C1340       C  0.99876174  0.85277807  0.35224561     0.07300
C1341       C  0.51009359  0.88210186  0.34584948    -0.14900
C1342       C  0.51088706  0.90449868  0.36868841    -0.14900
C1343       C  0.00040341  0.89804097  0.39838754     0.07300
C1344       C  0.98891008  0.86871021  0.40471386    -0.14900
H1345       H  0.97893735  0.82394339  0.38735898     0.11200
H1346       H  0.51896819  0.88760094  0.32337758     0.11200
H1347       H  0.52024121  0.92678542  0.36324019     0.11200
H1348       H  0.98031060  0.86314992  0.42727554     0.11200
C1349       C  0.48967421  0.90640383  0.13332384    -0.14900
C1350       C  0.99495449  0.89908261  0.10266534     0.07300
C1351       C  0.00100215  0.86843411  0.09488639    -0.14900
C1352       C  0.00193232  0.84580601  0.11740625    -0.14900
C1353       C  0.99668914  0.85322122  0.14826288     0.07300
C1354       C  0.49050983  0.88369352  0.15584138    -0.14900
H1355       H  0.48496160  0.92978330  0.14012090     0.11200
H1356       H  0.00558846  0.86191791  0.07140420     0.11200
H1357       H  0.00709546  0.82252090  0.11062751     0.11200
H1358       H  0.48630646  0.89018368  0.17940211     0.11200
C1359       C  0.99774818  0.63384451  0.09448448    -0.14900
C1360       C  0.00215806  0.60291675  0.10205979     0.07300
C1361       C  0.50738870  0.59479099  0.13287519    -0.14900
C1362       C  0.50744854  0.61717464  0.15565127    -0.14900
C1363       C  0.00233171  0.64816399  0.14807195     0.07300
C1364       C  0.99784025  0.65622594  0.11724390    -0.14900
H1365       H  0.99374908  0.64076967  0.07101880     0.11200
H1366       H  0.51124481  0.57119269  0.13942370     0.11200
H1367       H  0.51134035  0.61025796  0.17913895     0.11200
H1368       H  0.99389535  0.67980181  0.11067355     0.11200
O1369       O  0.00343186  0.55100342  0.58791095    -0.81700
O1370       O  0.99967467  0.55056090  0.91273570    -0.83200
O1371       O  0.05209099  0.58666652  0.49979173    -0.80300
O1372       O  0.45213640  0.58818363  0.49978121    -0.78600
O1373       O  0.41547728  0.55111082  0.49947501    -0.80400
O1374       O  0.08861527  0.54940828  0.50010018    -0.81400
O1375       O  0.00047239  0.58766055  0.94970944    -0.82700
O1376       O  0.00252866  0.58763790  0.55041365    -0.83000
Eu1377     Eu  0.00172557  0.56222565  0.50029855     2.42000
O1378       O  0.46878897  0.53167091  0.96838788    -0.90500
O1379       O  0.03237291  0.53095594  0.53122699    -0.94100
C1380       C  0.00325450  0.57908313  0.57868371     1.00600
C1381       C  0.00013391  0.57877980  0.92153446     1.00400
C1382       C  0.08009289  0.57772342  0.49993164     1.00400
C1383       C  0.42407833  0.57933244  0.49939277     0.98200
H1384       H  0.04341797  0.54417255  0.95629123     0.28000
O1385       O  0.03063367  0.53153305  0.96891337    -1.02900
H1386       H  0.45815518  0.54533179  0.54443534     0.28000
O1387       O  0.47058483  0.53227907  0.53188658    -1.05400
O1388       O  0.00134881  0.94896960  0.91346183    -0.82600
O1389       O  0.00137114  0.95170137  0.58881454    -0.82200
O1390       O  0.08705617  0.49919604  0.95096259    -0.80600
O1391       O  0.41301518  0.50045239  0.94934926    -0.84000
O1392       O  0.41440828  0.50263505  0.55052911    -0.81800
O1393       O  0.08789074  0.49871198  0.54985644    -0.80500
O1394       O  0.05212022  0.91411069  0.50059830    -0.82000
O1395       O  0.45248138  0.91188916  0.50351427    -0.83900
O1396       O  0.08826172  0.95173144  0.50125302    -0.80600
O1397       O  0.41544126  0.94858759  0.50244098    -0.83300
O1398       O  0.05054651  0.50033991  0.91371396    -0.79100
O1399       O  0.05136604  0.49964928  0.58712620    -0.79100
O1400       O  0.45071867  0.50244395  0.58793676    -0.78700
O1401       O  0.44968504  0.49967591  0.91224594    -0.82200
O1402       O  0.99933847  0.91248422  0.95100765    -0.81700
O1403       O  0.00254377  0.91452103  0.55192236    -0.80000
Eu1404     Eu  0.99986182  0.50034867  0.93778960     2.39800
Eu1405     Eu  0.00114483  0.50071999  0.56276459     2.39600
Eu1406     Eu  0.06268649  0.49948974  0.49993120     2.38400
Eu1407     Eu  0.44000818  0.50090476  0.50082355     2.39900
Eu1408     Eu  0.00166955  0.93848130  0.50126010     2.39800
O1409       O  0.46996192  0.96942257  0.53191827    -0.94400
O1410       O  0.03052263  0.96921049  0.96900143    -0.93300
C1411       C  0.00063836  0.92091301  0.92277907     1.00800
C1412       C  0.00219534  0.92348912  0.58008204     0.99500
C1413       C  0.07855037  0.49958363  0.92270618     0.98900
C1414       C  0.42159116  0.50013466  0.92109128     1.00900
C1415       C  0.42272586  0.50293395  0.57883893     0.99800
C1416       C  0.07931506  0.49895910  0.57810575     0.98700
C1417       C  0.08005251  0.92329730  0.50066550     0.98700
C1418       C  0.42438906  0.92045569  0.50352176     1.01300
H1419       H  0.04451494  0.95807879  0.54538280     0.28700
O1420       O  0.03163299  0.97035788  0.53256030    -1.06600
H1421       H  0.45619169  0.95615195  0.95565666     0.30800
O1422       O  0.46864954  0.96903551  0.96838057    -1.09100
O1423       O  0.00016922  0.70134186  0.66221038    -0.81700
O1424       O  0.00037021  0.70002384  0.83700607    -0.83200
O1425       O  0.05093649  0.66413451  0.75034262    -0.80300
O1426       O  0.45048285  0.66268712  0.74996754    -0.78600
O1427       O  0.41364609  0.69959663  0.75077688    -0.80400
O1428       O  0.08747575  0.70138217  0.74962934    -0.81400
O1429       O  0.99953269  0.66319896  0.79978691    -0.82700
O1430       O  0.00185144  0.66412655  0.69912329    -0.83000
Eu1431     Eu  0.00036848  0.68846667  0.74970502     2.39200
O1432       O  0.46931963  0.71880375  0.78123960    -0.90500
O1433       O  0.03099257  0.71995476  0.71884484    -0.94100
C1434       C  0.00133250  0.67315380  0.67099701     1.00600
C1435       C  0.99989135  0.67193127  0.82802864     1.00400
C1436       C  0.07895743  0.67309992  0.75001313     1.00400
C1437       C  0.42237717  0.67137703  0.75049201     0.98200
H1438       H  0.04388643  0.70687611  0.79353444     0.28000
O1439       O  0.03113565  0.71952361  0.78089533    -1.02900
H1440       H  0.45671397  0.70676376  0.70607805     0.28000
O1441       O  0.46926122  0.71950416  0.71887159    -1.05400
O1442       O  0.00014748  0.79878006  0.83904524    -0.82600
O1443       O  0.99969338  0.80172974  0.66397286    -0.82200
O1444       O  0.08708501  0.75172758  0.79965536    -0.80600
O1445       O  0.41282398  0.74795728  0.80041155    -0.84000
O1446       O  0.41303528  0.75029871  0.70070260    -0.81800
O1447       O  0.08764583  0.74943767  0.70007901    -0.80500
O1448       O  0.04873745  0.83910590  0.75186729    -0.82000
O1449       O  0.44906279  0.83711998  0.75160391    -0.83900
O1450       O  0.08538497  0.80202379  0.75050622    -0.80600
O1451       O  0.41257613  0.79983801  0.75123742    -0.83300
O1452       O  0.05036418  0.75077745  0.83669095    -0.79100
O1453       O  0.05074363  0.74950032  0.66324636    -0.79100
O1454       O  0.44970980  0.75130717  0.66361477    -0.78700
O1455       O  0.44959883  0.74850093  0.83737170    -0.82200
O1456       O  0.00151262  0.83616925  0.80238202    -0.81700
O1457       O  0.99930840  0.83838665  0.70142069    -0.80000
Eu1458     Eu  0.99983514  0.74990979  0.81222624     2.39800
Eu1459     Eu  0.00014520  0.75115282  0.68815370     2.39600
Eu1460     Eu  0.06163436  0.75114870  0.74987703     2.38400
Eu1461     Eu  0.43834935  0.74999506  0.75058454     2.39900
Eu1462     Eu  0.99946874  0.81264475  0.75122442     2.39800
O1463       O  0.46889867  0.78164202  0.71975349    -0.94400
O1464       O  0.03059090  0.78138916  0.78155821    -0.93300
C1465       C  0.00129713  0.82696375  0.83048387     1.00800
C1466       C  0.99960943  0.82983869  0.67313190     0.99500
C1467       C  0.07842027  0.75153956  0.82786690     0.98900
C1468       C  0.42149737  0.74768938  0.82863116     1.00900
C1469       C  0.42168570  0.75076794  0.67248578     0.99800
C1470       C  0.07889939  0.74872138  0.67185859     0.98700
C1471       C  0.07674953  0.83026830  0.75119306     0.98700
C1472       C  0.42106540  0.82813966  0.75151318     1.01300
H1473       H  0.04337623  0.79541565  0.70657479     0.28700
O1474       O  0.03079991  0.78258423  0.71919013    -1.06600
H1475       H  0.45594799  0.79374338  0.79509100     0.30800
O1476       O  0.46860275  0.78134803  0.78212118    -1.09100
O1477       O  0.33625442  0.00057317  0.69996873    -0.81700
O1478       O  0.16265180  0.00256754  0.70162939    -0.83200
O1479       O  0.24974219  0.95095671  0.66252632    -0.80300
O1480       O  0.24770189  0.55003178  0.66242489    -0.78600
O1481       O  0.24948430  0.58707555  0.69938681    -0.80400
O1482       O  0.25122982  0.91395436  0.69964773    -0.81400
O1483       O  0.19896086  0.00123389  0.66424365    -0.82700
O1484       O  0.29951397  0.00081511  0.66296143    -0.83000
Eu1485     Eu  0.24944547  0.00054964  0.68831837     2.39200
O1486       O  0.21880928  0.53080290  0.71884118    -0.90500
O1487       O  0.28025002  0.96922546  0.71915828    -0.94100
C1488       C  0.32757933  0.00064564  0.67175017     1.00600
C1489       C  0.17105226  0.00242832  0.67338449     1.00400
C1490       C  0.25075945  0.92284087  0.67143672     1.00400
C1491       C  0.24826170  0.57827842  0.67123764     0.98200
H1492       H  0.20601219  0.95648980  0.70649401     0.28000
O1493       O  0.21873857  0.96908699  0.71927483    -1.02900
H1494       H  0.29351432  0.54393779  0.70549310     0.28000
O1495       O  0.28095715  0.53132113  0.71835038    -1.05400
O1496       O  0.16328364  0.99946827  0.80064694    -0.82600
O1497       O  0.33626729  0.00004339  0.79984039    -0.82200
O1498       O  0.19957555  0.91292335  0.74950375    -0.80600
O1499       O  0.20023330  0.58775681  0.74809701    -0.84000
O1500       O  0.30031423  0.58693282  0.74940775    -0.81800
O1501       O  0.29942045  0.91283542  0.75102967    -0.80500
O1502       O  0.24951205  0.95103323  0.83815298    -0.82000
O1503       O  0.24798868  0.55069838  0.83649731    -0.83900
O1504       O  0.24765782  0.91361729  0.80141015    -0.80600
O1505       O  0.24956070  0.58763611  0.79949361    -0.83300
O1506       O  0.16331821  0.95038504  0.75019128    -0.79100
O1507       O  0.33600352  0.95001721  0.74965396    -0.79100
O1508       O  0.33696950  0.54982540  0.74921168    -0.78700
O1509       O  0.16337489  0.55081812  0.74977926    -0.82200
O1510       O  0.19982998  0.00074300  0.83782461    -0.81700
O1511       O  0.30002756  0.99981214  0.83736294    -0.80000
Eu1512     Eu  0.18850202  0.00021076  0.75088550     2.39800
Eu1513     Eu  0.31100425  0.00053296  0.74993276     2.39600
Eu1514     Eu  0.24957756  0.93814775  0.75052439     2.38400
Eu1515     Eu  0.24990025  0.56216760  0.74941956     2.39900
Eu1516     Eu  0.24995892  0.00081639  0.81251843     2.39800
O1517       O  0.28061094  0.53142187  0.78072311    -0.94400
O1518       O  0.21910959  0.96920253  0.78197950    -0.93300
C1519       C  0.17181568  0.99997397  0.82886692     1.00800
C1520       C  0.32793072  0.99971395  0.82815128     0.99500
C1521       C  0.17164061  0.92209825  0.74965270     0.98900
C1522       C  0.17217749  0.57907630  0.74886178     1.00900
C1523       C  0.32837208  0.57807218  0.74936255     0.99800
C1524       C  0.32742457  0.92170872  0.75044604     0.98700
C1525       C  0.24831837  0.92279810  0.82957076     0.98700
C1526       C  0.24855138  0.57884205  0.82769719     1.01300
H1527       H  0.29314937  0.95672190  0.79400812     0.28700
O1528       O  0.28051154  0.96945073  0.78133632    -1.06600
H1529       H  0.20589126  0.54437707  0.79322045     0.30800
O1530       O  0.21857085  0.53161962  0.78065935    -1.09100
O1531       O  0.19908532  0.66265058  0.99938905    -0.81700
O1532       O  0.20051850  0.83822694  0.99980932    -0.83200
O1533       O  0.16367850  0.74847632  0.54930979    -0.80300
O1534       O  0.16319134  0.75194901  0.94960766    -0.78600
O1535       O  0.19997984  0.75240706  0.91263937    -0.80400
O1536       O  0.20020477  0.74905016  0.58656056    -0.81400
O1537       O  0.16372526  0.80125248  0.99995474    -0.82700
O1538       O  0.16276856  0.70009541  0.99869139    -0.83000
Eu1539     Eu  0.18788521  0.75053623  0.99999927     2.39200
O1540       O  0.21903688  0.78155947  0.96928501    -0.90500
O1541       O  0.21995132  0.72009365  0.53086491    -0.94100
C1542       C  0.17116302  0.67173226  0.99868711     1.00600
C1543       C  0.17243002  0.82950022  0.00003936     1.00400
C1544       C  0.17222604  0.74792379  0.57761548     1.00400
C1545       C  0.17193248  0.75261614  0.92138605     0.98200
H1546       H  0.20725909  0.79476879  0.54351454     0.28000
O1547       O  0.21997506  0.78205636  0.53094244    -1.02900
H1548       H  0.20580427  0.70687736  0.95614821     0.28000
O1549       O  0.21853816  0.71933124  0.96901519    -1.05400
O1550       O  0.30081776  0.83633073  0.00289259    -0.82600
O1551       O  0.29917845  0.66286447  0.99936711    -0.82200
O1552       O  0.25139817  0.80088378  0.58773276    -0.80600
O1553       O  0.24964352  0.80160928  0.91427154    -0.84000
O1554       O  0.24873155  0.69980986  0.91355465    -0.81800
O1555       O  0.24829293  0.70106195  0.58783106    -0.80500
O1556       O  0.33723003  0.74924541  0.55084408    -0.82000
O1557       O  0.33585487  0.74838022  0.95012525    -0.83900
O1558       O  0.30034282  0.74998802  0.58771042    -0.80600
O1559       O  0.29939808  0.74735768  0.91283309    -0.83300
O1560       O  0.25090750  0.83774223  0.55049211    -0.79100
O1561       O  0.24845947  0.66396306  0.55088683    -0.79100
O1562       O  0.24831706  0.66254417  0.95034813    -0.78700
O1563       O  0.25145232  0.83862618  0.95136679    -0.82200
O1564       O  0.33731533  0.79911930  0.00210500    -0.81700
O1565       O  0.33585113  0.69994470  0.99845112    -0.80000
Eu1566     Eu  0.25022240  0.81218669  0.00047002     2.39800
Eu1567     Eu  0.24888151  0.68793388  0.00041872     2.39600
Eu1568     Eu  0.25058569  0.75083961  0.56221694     2.38400
Eu1569     Eu  0.24966788  0.75043900  0.93821130     2.39900
Eu1570     Eu  0.31092240  0.74975715  0.00052978     2.39800
O1571       O  0.27979116  0.71904139  0.96956541    -0.94400
O1572       O  0.28221454  0.78146000  0.53149574    -0.93300
C1573       C  0.32882805  0.82738413  0.00295909     1.00800
C1574       C  0.32722286  0.67174959  0.99848999     0.99500
C1575       C  0.25116983  0.82902048  0.57872270     0.98900
C1576       C  0.25043177  0.82982959  0.92322877     1.00900
C1577       C  0.24838382  0.67152156  0.92219253     0.99800
C1578       C  0.24772812  0.67286322  0.57901967     0.98700
C1579       C  0.32840496  0.74952558  0.57902641     0.98700
C1580       C  0.32737350  0.74719119  0.92182256     1.01300
H1581       H  0.29421362  0.70617717  0.54484969     0.28700
O1582       O  0.28185096  0.71904932  0.53205156    -1.06600
H1583       H  0.29404208  0.79393906  0.95642222     0.30800
O1584       O  0.28110954  0.78139425  0.96899635    -1.09100
C1585       C  0.23918209  0.59568668  0.61731870    -0.14900
C1586       C  0.24762336  0.60247195  0.64758910     0.07300
C1587       C  0.25541690  0.63277392  0.65523080    -0.14900
C1588       C  0.25490871  0.65575457  0.63308855    -0.14900
C1589       C  0.24675901  0.64890611  0.60277963     0.07300
C1590       C  0.23871305  0.61869060  0.59514366    -0.14900
H1591       H  0.23282520  0.57263301  0.61077315     0.11200
H1592       H  0.26227205  0.63872770  0.67830004     0.11200
H1593       H  0.26147432  0.67876003  0.63960860     0.11200
H1594       H  0.23209054  0.61277782  0.57199239     0.11200
C1595       C  0.23660633  0.90397170  0.61939858    -0.14900
C1596       C  0.25119730  0.89903804  0.64757638     0.07300
C1597       C  0.26593748  0.87104320  0.65290711    -0.14900
C1598       C  0.26587359  0.84820523  0.63052413    -0.14900
C1599       C  0.25115608  0.85305526  0.60240841     0.07300
C1600       C  0.23657071  0.88114408  0.59700125    -0.14900
H1601       H  0.22482836  0.92528472  0.61488411     0.11200
H1602       H  0.27770837  0.86691775  0.67430334     0.11200
H1603       H  0.27762840  0.82688295  0.63504143     0.11200
H1604       H  0.22480969  0.88528189  0.57560172     0.11200
C1605       C  0.26316556  0.90478788  0.88178190    -0.14900
C1606       C  0.24814100  0.89934752  0.85388082     0.07300
C1607       C  0.23335933  0.87123066  0.84931694    -0.14900
C1608       C  0.23413783  0.84867763  0.87195565    -0.14900
C1609       C  0.24968739  0.85383364  0.89954482     0.07300
C1610       C  0.26395001  0.88221220  0.90443553    -0.14900
H1611       H  0.27482931  0.92626739  0.88581956     0.11200
H1612       H  0.22110338  0.86674114  0.82827144     0.11200
H1613       H  0.22236382  0.82724829  0.86798686     0.11200
H1614       H  0.27609821  0.88674034  0.92554200     0.11200
C1615       C  0.24242796  0.59459501  0.88245611    -0.14900
C1616       C  0.24808832  0.60258482  0.85178463     0.07300
C1617       C  0.25366830  0.63337729  0.84448503    -0.14900
C1618       C  0.25368228  0.65569972  0.86734796    -0.14900
C1619       C  0.24810806  0.64775097  0.89802938     0.07300
C1620       C  0.24245991  0.61692476  0.90533211    -0.14900
H1621       H  0.23791210  0.57107193  0.88885347     0.11200
H1622       H  0.25831543  0.64025719  0.82112801     0.11200
H1623       H  0.25833972  0.67919317  0.86096226     0.11200
H1624       H  0.23795146  0.61002331  0.92871118     0.11200
C1625       C  0.40589879  0.61628199  0.75349862    -0.14900
C1626       C  0.39835813  0.64742929  0.75056066     0.07300
C1627       C  0.36753093  0.65552286  0.74744558    -0.14900
C1628       C  0.34488266  0.63307005  0.74697149    -0.14900
C1629       C  0.35243271  0.60192162  0.74968629     0.07300
C1630       C  0.38323240  0.59381280  0.75303479    -0.14900
H1631       H  0.42934414  0.60920250  0.75618191     0.11200
H1632       H  0.36082102  0.67926643  0.74513049     0.11200
H1633       H  0.32143796  0.64018029  0.74435559     0.11200
H1634       H  0.38990309  0.57006312  0.75541555     0.11200
C1635       C  0.40484109  0.88323545  0.75123186    -0.14900
C1636       C  0.39703980  0.85201072  0.75166447     0.07300
C1637       C  0.36608275  0.84390876  0.75197535    -0.14900
C1638       C  0.34353415  0.86647568  0.75161034    -0.14900
C1639       C  0.35135991  0.89771788  0.75092416     0.07300
C1640       C  0.38231045  0.90578477  0.75085305    -0.14900
H1641       H  0.42842329  0.89035911  0.75104820     0.11200
H1642       H  0.35919487  0.82010385  0.75240136     0.11200
H1643       H  0.31994530  0.85937080  0.75179097     0.11200
H1644       H  0.38922417  0.92958020  0.75045227     0.11200
C1645       C  0.13355419  0.65684894  0.74431812    -0.14900
C1646       C  0.10298796  0.64922735  0.75004419     0.07300
C1647       C  0.09551556  0.61842250  0.75553417    -0.14900
C1648       C  0.11792012  0.59574857  0.75503336    -0.14900
C1649       C  0.14842948  0.60326152  0.74908631     0.07300
C1650       C  0.15599983  0.63413566  0.74381764    -0.14900
H1651       H  0.14014140  0.68033649  0.73992684     0.11200
H1652       H  0.07228140  0.61174656  0.76030276     0.11200
H1653       H  0.11128371  0.57229161  0.75948908     0.11200
H1654       H  0.17926117  0.64078334  0.73913390     0.11200
C1655       C  0.09374905  0.88515248  0.75423989    -0.14900
C1656       C  0.10085435  0.85397961  0.75065586     0.07300
C1657       C  0.13138296  0.84553292  0.74600933    -0.14900
C1658       C  0.15430040  0.86761471  0.74530270    -0.14900
C1659       C  0.14728335  0.89870855  0.74934276     0.07300
C1660       C  0.11670031  0.90726419  0.75353068    -0.14900
H1661       H  0.07048961  0.89249353  0.75775857     0.11200
H1662       H  0.13767490  0.82177221  0.74281589     0.11200
H1663       H  0.17753644  0.86025674  0.74167025     0.11200
H1664       H  0.11045103  0.93105400  0.75661812     0.11200
C1665       C  0.40563705  0.75004450  0.61744823    -0.14900
C1666       C  0.39776104  0.75041089  0.64862644     0.07300
C1667       C  0.36680549  0.75017883  0.65674686    -0.14900
C1668       C  0.34429164  0.74970505  0.63420254    -0.14900
C1669       C  0.35219925  0.74946189  0.60301396     0.07300
C1670       C  0.38314474  0.74955609  0.59492560    -0.14900
H1671       H  0.42922763  0.75013169  0.61034956     0.11200
H1672       H  0.35989001  0.75040060  0.68054552     0.11200
H1673       H  0.32069007  0.74962668  0.64126845     0.11200
H1674       H  0.39009121  0.74936976  0.57113668     0.11200
C1675       C  0.13369070  0.74347679  0.65543177    -0.14900
C1676       C  0.10278611  0.74690571  0.64768536     0.07300
C1677       C  0.09492328  0.74873180  0.61650927    -0.14900
C1678       C  0.11734498  0.74834042  0.59377757    -0.14900
C1679       C  0.14828693  0.74618939  0.60159244     0.07300
C1680       C  0.15612702  0.74307153  0.63267967    -0.14900
H1681       H  0.14063989  0.74142649  0.67913169     0.11200
H1682       H  0.07139024  0.75100272  0.60959597     0.11200
H1683       H  0.11038924  0.75037387  0.57007843     0.11200
H1684       H  0.17967540  0.74074962  0.63954719     0.11200
C1685       C  0.13328758  0.75463811  0.84367578    -0.14900
C1686       C  0.10239120  0.75227965  0.85175346     0.07300
C1687       C  0.09463104  0.75074459  0.88292514    -0.14900
C1688       C  0.11715515  0.75127900  0.90545412    -0.14900
C1689       C  0.14805329  0.75325317  0.89740590     0.07300
C1690       C  0.15583778  0.75516579  0.86623041    -0.14900
H1691       H  0.14013065  0.75602530  0.81989632     0.11200
H1692       H  0.07110404  0.74896045  0.89001065     0.11200
H1693       H  0.11028236  0.74982396  0.92921880     0.11200
H1694       H  0.17938186  0.75688615  0.85917879     0.11200
C1695       C  0.40489965  0.75005517  0.88366278    -0.14900
C1696       C  0.39746374  0.74652936  0.85255566     0.07300
C1697       C  0.36675225  0.74216115  0.84452238    -0.14900
C1698       C  0.34406127  0.74185676  0.86697820    -0.14900
C1699       C  0.35148479  0.74601077  0.89803540     0.07300
C1700       C  0.38222611  0.74976048  0.90609888    -0.14900
H1701       H  0.42826011  0.75344821  0.89072511     0.11200
H1702       H  0.36015834  0.73909669  0.82082434     0.11200
H1703       H  0.32067317  0.73859989  0.85993017     0.11200
H1704       H  0.38882595  0.75296239  0.92977532     0.11200
C1705       C  0.36967667  0.90482667  0.50316630    -0.14900
C1706       C  0.40053729  0.89651189  0.50440154     0.07300
C1707       C  0.40814470  0.86527113  0.50582133    -0.14900
C1708       C  0.38538017  0.84291005  0.50543094    -0.14900
C1709       C  0.35451810  0.85129693  0.50362852     0.07300
C1710       C  0.34698584  0.88253577  0.50277007    -0.14900
H1711       H  0.36292190  0.92864964  0.50216050     0.11200
H1712       H  0.43167182  0.85804477  0.50696492     0.11200
H1713       H  0.39201702  0.81904898  0.50634990     0.11200
H1714       H  0.32350171  0.88987173  0.50149630     0.11200
C1715       C  0.36918181  0.59463771  0.50308127    -0.14900
C1716       C  0.39984667  0.60298072  0.49898944     0.07300
C1717       C  0.40694585  0.63401526  0.49455077    -0.14900
C1718       C  0.38398289  0.65616377  0.49437565    -0.14900
C1719       C  0.35333046  0.64786996  0.49873946     0.07300
C1720       C  0.34622465  0.61678842  0.50295159    -0.14900
H1721       H  0.36284381  0.57094508  0.50665754     0.11200
H1722       H  0.43025459  0.64124374  0.49113699     0.11200
H1723       H  0.39033128  0.67985881  0.49084652     0.11200
H1724       H  0.32293362  0.60954972  0.50645189     0.11200
C1725       C  0.13522461  0.90765953  0.49907110    -0.14900
C1726       C  0.10427410  0.89948250  0.49984398     0.07300
C1727       C  0.09662990  0.86819420  0.49951171    -0.14900
C1728       C  0.11924128  0.84573042  0.49861778    -0.14900
C1729       C  0.15017510  0.85387141  0.49814133     0.07300
C1730       C  0.15788711  0.88514453  0.49819533    -0.14900
H1731       H  0.14200842  0.93149535  0.49918004     0.11200
H1732       H  0.07309113  0.86094288  0.50000929     0.11200
H1733       H  0.11237753  0.82191505  0.49853254     0.11200
H1734       H  0.18145880  0.89229745  0.49775957     0.11200
C1735       C  0.09618892  0.63273559  0.50363898    -0.14900
C1736       C  0.10401669  0.60172489  0.49989615     0.07300
C1737       C  0.13484588  0.59401454  0.49617267    -0.14900
C1738       C  0.15724086  0.61677009  0.49620257    -0.14900
C1739       C  0.14936085  0.64779916  0.49993213     0.07300
C1740       C  0.11855432  0.65546206  0.50365850    -0.14900
H1741       H  0.07271154  0.63953859  0.50671867     0.11200
H1742       H  0.14171599  0.57039716  0.49310184     0.11200
H1743       H  0.18073635  0.61001053  0.49314618     0.11200
H1744       H  0.11165488  0.67906508  0.50676041     0.11200
C1745       C  0.36654627  0.50345273  0.90577827    -0.14900
C1746       C  0.39735264  0.50070644  0.89734812     0.07300
C1747       C  0.40467842  0.49914216  0.86606777    -0.14900
C1748       C  0.38185334  0.50016536  0.84382880    -0.14900
C1749       C  0.35107752  0.50263278  0.85225979     0.07300
C1750       C  0.34370415  0.50445670  0.88352314    -0.14900
H1751       H  0.35999508  0.50491563  0.92963639     0.11200
H1752       H  0.42809299  0.49708404  0.85868946     0.11200
H1753       H  0.38840901  0.49872628  0.81996987     0.11200
H1754       H  0.32027460  0.50652413  0.89087018     0.11200
C1755       C  0.09501745  0.50379694  0.86798427    -0.14900
C1756       C  0.10259813  0.49937058  0.89891419     0.07300
C1757       C  0.13333025  0.49499120  0.90678225    -0.14900
C1758       C  0.15587666  0.49503573  0.88417870    -0.14900
C1759       C  0.14820120  0.49943484  0.85319316     0.07300
C1760       C  0.11750597  0.50384726  0.84544023    -0.14900
H1761       H  0.07164091  0.50742620  0.86110126     0.11200
H1762       H  0.14000256  0.49143499  0.93038752     0.11200
H1763       H  0.17929077  0.49150152  0.89099595     0.11200
H1764       H  0.11076916  0.50752238  0.82187760     0.11200
C1765       C  0.13414627  0.49865353  0.59364123    -0.14900
C1766       C  0.10323668  0.49830870  0.60185317     0.07300
C1767       C  0.09538677  0.49736714  0.63301999    -0.14900
C1768       C  0.11789096  0.49689367  0.65547524    -0.14900
C1769       C  0.14878653  0.49742256  0.64731527     0.07300
C1770       C  0.15667889  0.49820236  0.61612522    -0.14900
H1771       H  0.14100314  0.49942212  0.56983657     0.11200
H1772       H  0.07181249  0.49704853  0.64016731     0.11200
H1773       H  0.11099098  0.49628002  0.67926989     0.11200
H1774       H  0.18026457  0.49870831  0.60902165     0.11200
C1775       C  0.40538015  0.50667504  0.63354874    -0.14900
C1776       C  0.39830575  0.50355193  0.60233423     0.07300
C1777       C  0.36759105  0.50028800  0.59378419    -0.14900
C1778       C  0.34466482  0.49921446  0.61596205    -0.14900
C1779       C  0.35186226  0.50146436  0.64725710     0.07300
C1780       C  0.38246846  0.50560872  0.65571062    -0.14900
H1781       H  0.42868813  0.50970084  0.64094880     0.11200
H1782       H  0.36121988  0.49805707  0.56993207     0.11200
H1783       H  0.32133955  0.49630197  0.60856409     0.11200
H1784       H  0.38882613  0.50800180  0.67954809     0.11200
C1785       C  0.50660309  0.63324771  0.90516047    -0.14900
C1786       C  0.00019095  0.60264381  0.89761430     0.07300
C1787       C  0.99356811  0.59503928  0.86706223    -0.14900
C1788       C  0.99339692  0.61755020  0.84445236    -0.14900
C1789       C  0.99989597  0.64812386  0.85192154     0.07300
C1790       C  0.50648314  0.65578648  0.88257422    -0.14900
H1791       H  0.51197505  0.63979263  0.92846895     0.11200
H1792       H  0.98826068  0.57169544  0.86060447     0.11200
H1793       H  0.98798750  0.61099466  0.82115649     0.11200
H1794       H  0.51178469  0.67912510  0.88907269     0.11200
C1795       C  0.98835259  0.84509561  0.88307283    -0.14900
C1796       C  0.00219454  0.85045195  0.85459624     0.07300
C1797       C  0.51664387  0.87876038  0.84904635    -0.14900
C1798       C  0.51615240  0.90170016  0.87126601    -0.14900
C1799       C  0.00144885  0.89657417  0.89949879     0.07300
C1800       C  0.98792483  0.86801833  0.90533942    -0.14900
H1801       H  0.97722615  0.82348155  0.88783094     0.11200
H1802       H  0.52825681  0.88302690  0.82759163     0.11200
H1803       H  0.52748534  0.92322613  0.86661033     0.11200
H1804       H  0.97653414  0.86362376  0.92688996     0.11200
C1805       C  0.50774066  0.90724418  0.63475141    -0.14900
C1806       C  0.00238084  0.89960648  0.60396174     0.07300
C1807       C  0.99705112  0.86889675  0.59603092    -0.14900
C1808       C  0.99600580  0.84633419  0.61851466    -0.14900
C1809       C  0.00039902  0.85392861  0.64945389     0.07300
C1810       C  0.50676533  0.88462475  0.65731055    -0.14900
H1811       H  0.51272760  0.93059224  0.64146111     0.11200
H1812       H  0.99322713  0.86226470  0.57244102     0.11200
H1813       H  0.99153489  0.82293965  0.61160747     0.11200
H1814       H  0.51116014  0.89107686  0.68084947     0.11200
C1815       C  0.98643310  0.63020988  0.59746957    -0.14900
C1816       C  0.00330764  0.60331106  0.60212912     0.07300
C1817       C  0.51987707  0.59972162  0.62948477    -0.14900
C1818       C  0.51928433  0.62262832  0.65181562    -0.14900
C1819       C  0.00219517  0.64935384  0.64717876     0.07300
C1820       C  0.98586091  0.65306655  0.61983438    -0.14900
H1821       H  0.97325375  0.63329326  0.57673922     0.11200
H1822       H  0.53324270  0.57927085  0.63346664     0.11200
H1823       H  0.53225228  0.61949083  0.67267321     0.11200
H1824       H  0.97227431  0.67340010  0.61600186     0.11200
O1825       O  0.49779920  0.05123259  0.08606725    -0.81700
O1826       O  0.49985302  0.05025974  0.41354297    -0.83200
O1827       O  0.54858980  0.08838990  0.00084971    -0.80300
O1828       O  0.94847487  0.08749025  0.99850828    -0.78600
O1829       O  0.91202280  0.05018400  0.99847429    -0.80400
O1830       O  0.58536830  0.05140417  0.00019920    -0.81400
O1831       O  0.49730257  0.08757493  0.45025140    -0.82700
O1832       O  0.49779744  0.08830758  0.04915154    -0.83000
Eu1833     Eu  0.49869810  0.06274189  0.99912101     2.42000
O1834       O  0.96880163  0.03088620  0.46936394    -0.90500
O1835       O  0.52926154  0.03182575  0.03041500    -0.94100
C1836       C  0.49768848  0.07940922  0.07733977     1.00600
C1837       C  0.49823611  0.07849938  0.42218246     1.00400
C1838       C  0.57667030  0.07964066  0.00090174     1.00400
C1839       C  0.92049375  0.07847309  0.99846202     0.98200
H1840       H  0.54313178  0.04451213  0.45674382     0.28000
O1841       O  0.53071784  0.03179461  0.46965144    -1.02900
H1842       H  0.95484554  0.04463717  0.04243958     0.28000
O1843       O  0.96767999  0.03187751  0.03002943    -1.05400
O1844       O  0.50201648  0.44973519  0.41297907    -0.82600
O1845       O  0.49999793  0.45146948  0.08826670    -0.82200
O1846       O  0.58742762  0.00127119  0.45146170    -0.80600
O1847       O  0.91345480  0.99887887  0.45036168    -0.84000
O1848       O  0.91133115  0.00146438  0.04851439    -0.81800
O1849       O  0.58562603  0.00348779  0.05002355    -0.80500
O1850       O  0.54979254  0.41366285  0.99961660    -0.82000
O1851       O  0.94891662  0.41381701  0.00049343    -0.83900
O1852       O  0.58652864  0.45071209  0.99970101    -0.80600
O1853       O  0.91230854  0.45098635  0.99996541    -0.83300
O1854       O  0.55082925  0.99910931  0.41431520    -0.79100
O1855       O  0.54850551  0.00304758  0.08672155    -0.79100
O1856       O  0.94765245  0.00210490  0.08595554    -0.78700
O1857       O  0.95025606  0.99886398  0.41337456    -0.82200
O1858       O  0.50056040  0.41298582  0.45027182    -0.81700
O1859       O  0.49948000  0.41445047  0.05119301    -0.80000
Eu1860     Eu  0.50036314  0.00002806  0.43875418     2.39800
Eu1861     Eu  0.49827641  0.00106098  0.06157810     2.39600
Eu1862     Eu  0.56073907  0.00094061  0.99981816     2.38400
Eu1863     Eu  0.93751699  0.00029120  0.99888362     2.39900
Eu1864     Eu  0.49937967  0.43852688  0.00040421     2.39800
O1865       O  0.96862712  0.46986538  0.03111348    -0.94400
O1866       O  0.53169116  0.46826319  0.46943714    -0.93300
C1867       C  0.50149731  0.42162796  0.42198366     1.00800
C1868       C  0.49988341  0.42330104  0.07941535     0.99500
C1869       C  0.57885564  0.00002694  0.42320761     0.98900
C1870       C  0.92214503  0.99854952  0.42208829     1.00900
C1871       C  0.91967322  0.00202905  0.07685141     0.99800
C1872       C  0.57665543  0.00390764  0.07817442     0.98700
C1873       C  0.57786975  0.42248934  0.99948767     0.98700
C1874       C  0.92086376  0.42271773  0.00032740     1.01300
H1875       H  0.54300267  0.45666054  0.04417243     0.28700
O1876       O  0.53037995  0.46936198  0.03149301    -1.06600
H1877       H  0.95708720  0.45637285  0.45691323     0.30800
O1878       O  0.96993520  0.46906972  0.46942213    -1.09100
O1879       O  0.49866604  0.19966141  0.16365068    -0.81700
O1880       O  0.49857434  0.20003741  0.33779695    -0.83200
O1881       O  0.55099221  0.16323947  0.24879056    -0.80300
O1882       O  0.95067468  0.16247467  0.24987702    -0.78600
O1883       O  0.91411326  0.19970224  0.24975007    -0.80400
O1884       O  0.58780974  0.20023572  0.24959121    -0.81400
O1885       O  0.49941981  0.16308429  0.30064194    -0.82700
O1886       O  0.49902741  0.16236217  0.20036476    -0.83000
Eu1887     Eu  0.50046393  0.18792443  0.25016216     2.39200
O1888       O  0.96965556  0.21890930  0.28163386    -0.90500
O1889       O  0.53111643  0.21875841  0.21858770    -0.94100
C1890       C  0.49849255  0.17139948  0.17225373     1.00600
C1891       C  0.49848624  0.17186839  0.32886965     1.00400
C1892       C  0.57906428  0.17208716  0.24913599     1.00400
C1893       C  0.92266756  0.17134821  0.24944806     0.98200
H1894       H  0.54438822  0.20581356  0.29357714     0.28000
O1895       O  0.53182421  0.21867576  0.28095379    -1.02900
H1896       H  0.95653119  0.20692456  0.20663628     0.28000
O1897       O  0.96945596  0.21936574  0.21932616    -1.05400
O1898       O  0.50197133  0.29989615  0.33740628    -0.82600
O1899       O  0.50061284  0.30076325  0.16302618    -0.82200
O1900       O  0.58784153  0.24951529  0.29929424    -0.80600
O1901       O  0.91409811  0.25192567  0.30138345    -0.84000
O1902       O  0.91397552  0.25354180  0.20043618    -0.81800
O1903       O  0.58652354  0.24792961  0.19859642    -0.80500
O1904       O  0.55193038  0.33698657  0.24945826    -0.82000
O1905       O  0.95146754  0.33745008  0.24977444    -0.83900
O1906       O  0.58828627  0.29962430  0.24857063    -0.80600
O1907       O  0.91435728  0.30077040  0.25137395    -0.83300
O1908       O  0.55145026  0.24894153  0.33667517    -0.79100
O1909       O  0.54963066  0.24838877  0.16174183    -0.79100
O1910       O  0.95025684  0.25254461  0.16296164    -0.78700
O1911       O  0.95129836  0.25154378  0.33792826    -0.82200
O1912       O  0.50295171  0.33696837  0.30041514    -0.81700
O1913       O  0.50146381  0.33766554  0.20020715    -0.80000
Eu1914     Eu  0.50109281  0.24988354  0.31213746     2.39800
Eu1915     Eu  0.50018987  0.25022973  0.18794689     2.39600
Eu1916     Eu  0.56235027  0.24979937  0.24931946     2.38400
Eu1917     Eu  0.93900152  0.25044704  0.25078916     2.39900
Eu1918     Eu  0.50155152  0.31214339  0.25006380     2.39800
O1919       O  0.97001838  0.28131302  0.21956819    -0.94400
O1920       O  0.53219197  0.28086734  0.28103650    -0.93300
C1921       C  0.50264837  0.32807668  0.32859559     1.00800
C1922       C  0.50109728  0.32897026  0.17198314     0.99500
C1923       C  0.57942373  0.24896796  0.32760730     0.98900
C1924       C  0.92312606  0.25227356  0.32956860     1.00900
C1925       C  0.92233623  0.25383766  0.17206552     0.99800
C1926       C  0.57770797  0.24779149  0.17038667     0.98700
C1927       C  0.57992908  0.32796343  0.24889484     0.98700
C1928       C  0.92333276  0.32890027  0.25058152     1.01300
H1929       H  0.54453852  0.29366173  0.20543962     0.28700
O1930       O  0.53188282  0.28118914  0.21830896    -1.06600
H1931       H  0.95823398  0.29437183  0.29414890     0.30800
O1932       O  0.97054364  0.28144436  0.28135879    -1.09100
O1933       O  0.83782609  0.50194272  0.20013813    -0.81700
O1934       O  0.66476355  0.50000910  0.19957669    -0.83200
O1935       O  0.75232612  0.45128899  0.16238340    -0.80300
O1936       O  0.74818362  0.05252705  0.16482860    -0.78600
O1937       O  0.75065829  0.08924017  0.20208272    -0.80400
O1938       O  0.75258081  0.41405415  0.19926224    -0.81400
O1939       O  0.70117770  0.50061610  0.16225681    -0.82700
O1940       O  0.80093396  0.50170463  0.16322612    -0.83000
Eu1941     Eu  0.75098353  0.50103446  0.18830861     2.39200
O1942       O  0.71850095  0.03204861  0.22002621    -0.90500
O1943       O  0.78254120  0.47001033  0.21882965    -0.94100
C1944       C  0.82898880  0.50185183  0.17195039     1.00600
C1945       C  0.67315118  0.50023729  0.17119911     1.00400
C1946       C  0.75257010  0.42308485  0.17113522     1.00400
C1947       C  0.74948671  0.08066910  0.17383339     0.98200
H1948       H  0.70808690  0.45632036  0.20604626     0.28000
O1949       O  0.72058563  0.46909457  0.21887631    -1.02900
H1950       H  0.79274379  0.04385189  0.20629012     0.28000
O1951       O  0.78017104  0.03117905  0.21903355    -1.05400
O1952       O  0.66524925  0.49695957  0.30066563    -0.82600
O1953       O  0.83830950  0.50141908  0.30078384    -0.82200
O1954       O  0.70247093  0.41236215  0.25012240    -0.80600
O1955       O  0.70049292  0.08767800  0.25174279    -0.84000
O1956       O  0.80078046  0.08676640  0.24965316    -0.81800
O1957       O  0.80243343  0.41397140  0.24942779    -0.80500
O1958       O  0.75254359  0.45005610  0.33693176    -0.82000
O1959       O  0.75368522  0.04865401  0.33840174    -0.83900
O1960       O  0.75340967  0.41294866  0.29994643    -0.80600
O1961       O  0.75364861  0.08622357  0.30198435    -0.83300
O1962       O  0.66553760  0.44920542  0.25037624    -0.79100
O1963       O  0.83899320  0.45119640  0.24989746    -0.79100
O1964       O  0.83712978  0.04936686  0.24890242    -0.78700
O1965       O  0.66345905  0.05084727  0.25051614    -0.82200
O1966       O  0.70198837  0.49866179  0.33770876    -0.81700
O1967       O  0.80161231  0.50171249  0.33783048    -0.80000
Eu1968     Eu  0.68969832  0.49987370  0.25022062     2.39800
Eu1969     Eu  0.81302809  0.50102816  0.25040287     2.39600
Eu1970     Eu  0.75215534  0.43843640  0.24981496     2.38400
Eu1971     Eu  0.75041200  0.06223592  0.25118136     2.39900
Eu1972     Eu  0.75177691  0.50025860  0.31234276     2.39800
O1973       O  0.78141711  0.03059246  0.28141525    -0.94400
O1974       O  0.72124096  0.46922126  0.28095511    -0.93300
C1975       C  0.67399369  0.49712899  0.32889722     1.00800
C1976       C  0.82965206  0.50184012  0.32906808     0.99500
C1977       C  0.67435409  0.42099785  0.25027306     0.98900
C1978       C  0.67241070  0.07899765  0.25102048     1.00900
C1979       C  0.82874720  0.07772880  0.24888831     0.99800
C1980       C  0.83041817  0.42290799  0.24967664     0.98700
C1981       C  0.75325655  0.42187347  0.32815316     0.98700
C1982       C  0.75455908  0.07696709  0.33004508     1.01300
H1983       H  0.79569821  0.45685315  0.29389295     0.28700
O1984       O  0.78283183  0.46939499  0.28129323    -1.06600
H1985       H  0.70691074  0.04387634  0.29482744     0.30800
O1986       O  0.71908647  0.03112093  0.28178189    -1.09100
O1987       O  0.69936329  0.16426122  0.50032935    -0.81700
O1988       O  0.69913843  0.33722687  0.49728550    -0.83200
O1989       O  0.66273550  0.25014629  0.04920976    -0.80300
O1990       O  0.66471841  0.24950802  0.44868008    -0.78600
O1991       O  0.70179917  0.24985460  0.41202057    -0.80400
O1992       O  0.69934529  0.24952897  0.08635278    -0.81400
O1993       O  0.66291702  0.29974090  0.49631797    -0.82700
O1994       O  0.66270895  0.20130783  0.49884128    -0.83000
Eu1995     Eu  0.68859128  0.25051342  0.49927787     2.39200
O1996       O  0.71974050  0.28153601  0.46855630    -0.90500
O1997       O  0.71876277  0.22014474  0.03123750    -0.94100
C1998       C  0.67130347  0.17314078  0.49919933     1.00600
C1999       C  0.67126965  0.32798668  0.49601179     1.00400
C2000       C  0.67135395  0.24945628  0.07737990     1.00400
C2001       C  0.67363468  0.24939207  0.42054677     0.98200
H2002       H  0.70599735  0.29489517  0.04399736     0.28000
O2003       O  0.71857724  0.28214867  0.03130124    -1.02900
H2004       H  0.70759425  0.20638580  0.45597808     0.28000
O2005       O  0.71989974  0.21928052  0.46886532    -1.05400
O2006       O  0.79893129  0.33961346  0.50136772    -0.82600
O2007       O  0.79989358  0.16354789  0.50176931    -0.82200
O2008       O  0.74993267  0.30122625  0.08746081    -0.80600
O2009       O  0.75202013  0.30079066  0.41349415    -0.84000
O2010       O  0.75256732  0.19950549  0.41385176    -0.81800
O2011       O  0.75070867  0.20151432  0.08791837    -0.80500
O2012       O  0.83628526  0.25231245  0.05081491    -0.82000
O2013       O  0.83882516  0.25242139  0.45296634    -0.83900
O2014       O  0.79969456  0.25324068  0.08793288    -0.80600
O2015       O  0.80256504  0.25087189  0.41544512    -0.83300
O2016       O  0.75215551  0.33793409  0.05015266    -0.79100
O2017       O  0.74923938  0.16417916  0.05120415    -0.79100
O2018       O  0.75114871  0.16288762  0.45126308    -0.78700
O2019       O  0.75014527  0.33806852  0.45028220    -0.82200
O2020       O  0.83561382  0.30257526  0.50323774    -0.81700
O2021       O  0.83666643  0.20063273  0.50272932    -0.80000
Eu2022     Eu  0.74950520  0.31302950  0.50026883     2.39800
Eu2023     Eu  0.75005122  0.18884560  0.50103336     2.39600
Eu2024     Eu  0.74977298  0.25114837  0.06224086     2.38400
Eu2025     Eu  0.75143711  0.25032001  0.43846458     2.39900
Eu2026     Eu  0.81175029  0.25147394  0.50231480     2.39800
O2027       O  0.78173166  0.21990527  0.47070248    -0.94400
O2028       O  0.78043003  0.28191210  0.03106609    -0.93300
C2029       C  0.82697757  0.33086439  0.50253193     1.00800
C2030       C  0.82792512  0.17231409  0.50236475     0.99500
C2031       C  0.75147469  0.32929523  0.07840252     0.98900
C2032       C  0.75142874  0.32907422  0.42218539     1.00900
C2033       C  0.75227934  0.17134175  0.42297775     0.99800
C2034       C  0.75009769  0.17326843  0.07935440     0.98700
C2035       C  0.82775044  0.25346066  0.07910365     0.98700
C2036       C  0.83050793  0.25203499  0.42457245     1.01300
H2037       H  0.79310804  0.20679043  0.04448854     0.28700
O2038       O  0.78042609  0.21933147  0.03168505    -1.06600
H2039       H  0.79412317  0.29470315  0.45781280     0.30800
O2040       O  0.78130327  0.28190030  0.47020111    -1.09100
C2041       C  0.75597460  0.13534459  0.15716906    -0.14900
C2042       C  0.74978856  0.10460222  0.14987554     0.07300
C2043       C  0.74405510  0.09670508  0.11920697    -0.14900
C2044       C  0.74435331  0.11894786  0.09635125    -0.14900
C2045       C  0.75034488  0.14967596  0.10359308     0.07300
C2046       C  0.75625333  0.15765283  0.13424899    -0.14900
H2047       H  0.76072497  0.14217131  0.18053220     0.11200
H2048       H  0.73911376  0.07327321  0.11277686     0.11200
H2049       H  0.73958720  0.11204131  0.07301609     0.11200
H2050       H  0.76117128  0.18112354  0.14056779     0.11200
C2051       C  0.73788696  0.37120573  0.15277293    -0.14900
C2052       C  0.75244167  0.39927172  0.14729649     0.07300
C2053       C  0.76675304  0.40427719  0.11900063    -0.14900
C2054       C  0.76664601  0.38142288  0.09658724    -0.14900
C2055       C  0.75211955  0.35330222  0.10211835     0.07300
C2056       C  0.73776411  0.34840298  0.13040501    -0.14900
H2057       H  0.72628015  0.36703481  0.17425201     0.11200
H2058       H  0.77832687  0.42568334  0.11438848     0.11200
H2059       H  0.77812345  0.38561625  0.07504557     0.11200
H2060       H  0.72604264  0.32708996  0.13505933     0.11200
C2061       C  0.76307902  0.36820591  0.34576718    -0.14900
C2062       C  0.75374535  0.39825847  0.35232040     0.07300
C2063       C  0.74455400  0.40560765  0.38226418    -0.14900
C2064       C  0.74396281  0.38319809  0.40499553    -0.14900
C2065       C  0.75258650  0.35294738  0.39827178     0.07300
C2066       C  0.76251648  0.34577358  0.36853487    -0.14900
H2067       H  0.77082885  0.36201726  0.32304896     0.11200
H2068       H  0.73725962  0.42858612  0.38804452     0.11200
H2069       H  0.73628612  0.38948600  0.42771331     0.11200
H2070       H  0.76990871  0.32280722  0.36284478     0.11200
C2071       C  0.76461761  0.13072546  0.34726142    -0.14900
C2072       C  0.75591066  0.10058309  0.35431581     0.07300
C2073       C  0.74700265  0.09363140  0.38442826    -0.14900
C2074       C  0.74575653  0.11659156  0.40670837    -0.14900
C2075       C  0.75364237  0.14695053  0.39941865     0.07300
C2076       C  0.76338829  0.15367041  0.36952886    -0.14900
H2077       H  0.77210943  0.13667895  0.32440134     0.11200
H2078       H  0.74016192  0.07061981  0.39059440     0.11200
H2079       H  0.73816819  0.11063197  0.42953314     0.11200
H2080       H  0.77013866  0.17669340  0.36331885     0.11200
C2081       C  0.90642132  0.11602631  0.24910234    -0.14900
C2082       C  0.89869904  0.14730866  0.24838973     0.07300
C2083       C  0.86778875  0.15537094  0.24667268    -0.14900
C2084       C  0.84518722  0.13283539  0.24645162    -0.14900
C2085       C  0.85286122  0.10159464  0.24796662     0.07300
C2086       C  0.88380418  0.09347627  0.24889088    -0.14900
H2087       H  0.92997580  0.10888249  0.25012709     0.11200
H2088       H  0.86095129  0.17917035  0.24570485     0.11200
H2089       H  0.82163943  0.13998771  0.24533254     0.11200
H2090       H  0.89062194  0.06966694  0.24980259     0.11200
C2091       C  0.90706244  0.38350607  0.24342981    -0.14900
C2092       C  0.89962291  0.35302868  0.25058165     0.07300
C2093       C  0.86923687  0.34579659  0.25754759    -0.14900
C2094       C  0.84683638  0.36847337  0.25723517    -0.14900
C2095       C  0.85426408  0.39893697  0.24997930     0.07300
C2096       C  0.88465210  0.40620443  0.24315928    -0.14900
H2097       H  0.93019613  0.38982699  0.23776315     0.11200
H2098       H  0.86272790  0.32260729  0.26339721     0.11200
H2099       H  0.82370271  0.36213611  0.26290063     0.11200
H2100       H  0.89111212  0.42940990  0.23732692     0.11200
C2101       C  0.63263355  0.15549486  0.25934021    -0.14900
C2102       C  0.60304298  0.14837904  0.24934027     0.07300
C2103       C  0.59658483  0.11840358  0.23974751    -0.14900
C2104       C  0.61914344  0.09593370  0.24033085    -0.14900
C2105       C  0.64866576  0.10295293  0.25050278     0.07300
C2106       C  0.65521610  0.13300464  0.25991815    -0.14900
H2107       H  0.63826440  0.17837196  0.26708751     0.11200
H2108       H  0.57412142  0.11233628  0.23158548     0.11200
H2109       H  0.61349594  0.07307652  0.23254691     0.11200
H2110       H  0.67769811  0.13907167  0.26803095     0.11200
C2111       C  0.59672162  0.38292403  0.25136744    -0.14900
C2112       C  0.60417267  0.35172148  0.24885046     0.07300
C2113       C  0.63506306  0.34346412  0.24680896    -0.14900
C2114       C  0.65787078  0.36582636  0.24743761    -0.14900
C2115       C  0.65036343  0.39702482  0.25004364     0.07300
C2116       C  0.61948780  0.40524241  0.25202338    -0.14900
H2117       H  0.57323989  0.39019096  0.25303179     0.11200
H2118       H  0.64169783  0.31967209  0.24476088     0.11200
H2119       H  0.68137497  0.35863145  0.24576288     0.11200
H2120       H  0.61278803  0.42901280  0.25411691     0.11200
C2121       C  0.90561853  0.25553386  0.11699411    -0.14900
C2122       C  0.89814395  0.25536238  0.14831000     0.07300
C2123       C  0.86724321  0.25593065  0.15666031    -0.14900
C2124       C  0.84442761  0.25571880  0.13430295    -0.14900
C2125       C  0.85190131  0.25496576  0.10297968     0.07300
C2126       C  0.88282024  0.25532144  0.09465318    -0.14900
H2127       H  0.92913377  0.25540953  0.10964470     0.11200
H2128       H  0.86058580  0.25609075  0.18053236     0.11200
H2129       H  0.82090781  0.25575798  0.14163023     0.11200
H2130       H  0.88951427  0.25507305  0.07079337     0.11200
C2131       C  0.63249595  0.24667694  0.15457026    -0.14900
C2132       C  0.60157074  0.24744376  0.14638400     0.07300
C2133       C  0.59381574  0.24863810  0.11516130    -0.14900
C2134       C  0.61645032  0.24923780  0.09273949    -0.14900
C2135       C  0.64735705  0.24862148  0.10103253     0.07300
C2136       C  0.65509498  0.24727642  0.13218220    -0.14900
H2137       H  0.63935126  0.24578780  0.17836724     0.11200
H2138       H  0.57025325  0.24933876  0.10800100     0.11200
H2139       H  0.60966327  0.25031462  0.06892322     0.11200
H2140       H  0.67865435  0.24676673  0.13937685     0.11200
C2141       C  0.63446199  0.24671040  0.34302145    -0.14900
C2142       C  0.60357627  0.24830000  0.35133003     0.07300
C2143       C  0.59601855  0.24943990  0.38257188    -0.14900
C2144       C  0.61873913  0.24959308  0.40490324    -0.14900
C2145       C  0.64965822  0.24859886  0.39661657     0.07300
C2146       C  0.65722752  0.24687495  0.36539513    -0.14900
H2147       H  0.64113317  0.24549178  0.31918289     0.11200
H2148       H  0.57250816  0.25049379  0.38986345     0.11200
H2149       H  0.61197522  0.25074174  0.42871941     0.11200
H2150       H  0.68075788  0.24577787  0.35818283     0.11200
C2151       C  0.90777333  0.25146581  0.38518079    -0.14900
C2152       C  0.89958307  0.25348488  0.35405913     0.07300
C2153       C  0.86860596  0.25626950  0.34660341    -0.14900
C2154       C  0.84639816  0.25610083  0.36951183    -0.14900
C2155       C  0.85448327  0.25318576  0.40055601     0.07300
C2156       C  0.88551571  0.25131261  0.40814181    -0.14900
H2157       H  0.93140998  0.24956463  0.39185433     0.11200
H2158       H  0.86140190  0.25831871  0.32298117     0.11200
H2159       H  0.82278586  0.25808027  0.36277009     0.11200
H2160       H  0.89264036  0.24931211  0.43179386     0.11200
C2161       C  0.86593207  0.40695991  0.00341360    -0.14900
C2162       C  0.89678403  0.39886480  0.00054571     0.07300
C2163       C  0.90439203  0.36771111  0.99788886    -0.14900
C2164       C  0.88178662  0.34523594  0.99793676    -0.14900
C2165       C  0.85096671  0.35330816  0.00064121     0.07300
C2166       C  0.84330654  0.38446044  0.00348299    -0.14900
H2167       H  0.85920079  0.43070683  0.00568329     0.11200
H2168       H  0.92787103  0.36061016  0.99560151     0.11200
H2169       H  0.88853323  0.32149460  0.99567334     0.11200
H2170       H  0.81981630  0.39152729  0.00581057     0.11200
C2171       C  0.86548316  0.09387961  0.99816250    -0.14900
C2172       C  0.89639158  0.10219886  0.99868838     0.07300
C2173       C  0.90402348  0.13342794  0.99976764    -0.14900
C2174       C  0.88135971  0.15578070  0.00043344    -0.14900
C2175       C  0.85047001  0.14750638  0.99997889     0.07300
C2176       C  0.84278853  0.11626420  0.99879227    -0.14900
H2177       H  0.85874695  0.07004231  0.99728799     0.11200
H2178       H  0.92756005  0.14069716  0.00019331     0.11200
H2179       H  0.88814137  0.17960411  0.00127931     0.11200
H2180       H  0.81923749  0.10903959  0.99831537     0.11200
C2181       C  0.63247868  0.40640500  0.99406177    -0.14900
C2182       C  0.60187805  0.39861879  0.99940112     0.07300
C2183       C  0.59450503  0.36782867  0.00507267    -0.14900
C2184       C  0.61711734  0.34536037  0.00536293    -0.14900
C2185       C  0.64767967  0.35312132  0.99995201     0.07300
C2186       C  0.65510266  0.38392301  0.99435067    -0.14900
H2187       H  0.63898677  0.42988221  0.98950348     0.11200
H2188       H  0.57123931  0.36105753  0.00954222     0.11200
H2189       H  0.61061721  0.32189644  0.00999655     0.11200
H2190       H  0.67838783  0.39068108  0.98994495     0.11200
C2191       C  0.59314343  0.13479218  0.00356926    -0.14900
C2192       C  0.60070929  0.10354971  0.00175543     0.07300
C2193       C  0.63162094  0.09529471  0.00072637    -0.14900
C2194       C  0.65434836  0.11764892  0.00128072    -0.14900
C2195       C  0.64680422  0.14889318  0.00277453     0.07300
C2196       C  0.61590172  0.15717846  0.00407404    -0.14900
H2197       H  0.56961125  0.14202371  0.00450321     0.11200
H2198       H  0.63836664  0.07148782  0.99932112     0.11200
H2199       H  0.67786382  0.11037937  0.00021427     0.11200
H2200       H  0.60921416  0.18101137  0.00533105     0.11200
C2201       C  0.86753951  0.00336896  0.40550546    -0.14900
C2202       C  0.89812593  0.99757765  0.39803572     0.07300
C2203       C  0.90540603  0.99070568  0.36740485    -0.14900
C2204       C  0.88277189  0.99008939  0.34479287    -0.14900
C2205       C  0.85226136  0.99638016  0.35220243     0.07300
C2206       C  0.84493669  0.00273787  0.38293032    -0.14900
H2207       H  0.86103513  0.00877088  0.42880849     0.11200
H2208       H  0.92863567  0.98573398  0.36085854     0.11200
H2209       H  0.88921797  0.98474094  0.32146179     0.11200
H2210       H  0.82173176  0.00775265  0.38953596     0.11200
C2211       C  0.59512007  0.99745537  0.36816378    -0.14900
C2212       C  0.60286033  0.99997484  0.39929496     0.07300
C2213       C  0.63373479  0.00292393  0.40725941    -0.14900
C2214       C  0.65625417  0.00351414  0.38463630    -0.14900
C2215       C  0.64847082  0.00104919  0.35348603     0.07300
C2216       C  0.61760218  0.99807244  0.34557525    -0.14900
H2217       H  0.57162685  0.99503036  0.36114399     0.11200
H2218       H  0.64057004  0.00492978  0.43099971     0.11200
H2219       H  0.67976827  0.00589099  0.39160093     0.11200
H2220       H  0.61071652  0.99599926  0.32185700     0.11200
C2221       C  0.63087164  0.01131014  0.09492846    -0.14900
C2222       C  0.60038676  0.00495741  0.10235764     0.07300
C2223       C  0.59294848  0.99879365  0.13305279    -0.14900
C2224       C  0.61548333  0.99836924  0.15566026    -0.14900
C2225       C  0.64604053  0.00419623  0.14817679     0.07300
C2226       C  0.65340883  0.01090197  0.11754246    -0.14900
H2227       H  0.63739591  0.01647429  0.07158136     0.11200
H2228       H  0.56973796  0.99373040  0.13959349     0.11200
H2229       H  0.60897617  0.99303523  0.17896884     0.11200
H2230       H  0.67664551  0.01581233  0.11097125     0.11200
C2231       C  0.90283901  0.99784357  0.13156208    -0.14900
C2232       C  0.89546572  0.00224136  0.10056711     0.07300
C2233       C  0.86471006  0.00607875  0.09247551    -0.14900
C2234       C  0.84190864  0.00515207  0.11482587    -0.14900
C2235       C  0.84934562  0.00043696  0.14580396     0.07300
C2236       C  0.88009835  0.99686241  0.15384338    -0.14900
H2237       H  0.92623016  0.99476357  0.13866245     0.11200
H2238       H  0.85820346  0.00975496  0.06884439     0.11200
H2239       H  0.81849129  0.00825275  0.10781610     0.11200
H2240       H  0.88671744  0.99319472  0.17744190     0.11200
C2241       C  0.98545593  0.13131428  0.40442814    -0.14900
C2242       C  0.49760658  0.10223035  0.39821444     0.07300
C2243       C  0.50981044  0.09617347  0.36914578    -0.14900
C2244       C  0.50977067  0.11875300  0.34657344    -0.14900
C2245       C  0.49763324  0.14787314  0.35264680     0.07300
C2246       C  0.98556634  0.15398690  0.38186505    -0.14900
H2247       H  0.97590508  0.13660046  0.42667825     0.11200
H2248       H  0.51984881  0.07411533  0.36398547     0.11200
H2249       H  0.51977658  0.11358939  0.32450363     0.11200
H2250       H  0.97611137  0.17626845  0.38718401     0.11200
C2251       C  0.51325081  0.38155689  0.34600984    -0.14900
C2252       C  0.50271464  0.35191403  0.35253601     0.07300
C2253       C  0.99187473  0.34536911  0.38208231    -0.14900
C2254       C  0.99147122  0.36802906  0.40462476    -0.14900
C2255       C  0.50196684  0.39764493  0.39812000     0.07300
C2256       C  0.51287589  0.40421020  0.36857729    -0.14900
H2257       H  0.52199222  0.38719262  0.32351854     0.11200
H2258       H  0.98331904  0.32279553  0.38767731     0.11200
H2259       H  0.98266969  0.36240243  0.42709129     0.11200
H2260       H  0.52138046  0.42679938  0.36296597     0.11200
C2261       C  0.01032868  0.40595495  0.13309929    -0.14900
C2262       C  0.50034646  0.39933772  0.10321862     0.07300
C2263       C  0.49189604  0.36920453  0.09587722    -0.14900
C2264       C  0.49233270  0.34634527  0.11814738    -0.14900
C2265       C  0.50119678  0.35312297  0.14828509     0.07300
C2266       C  0.01073138  0.38303535  0.15539756    -0.14900
H2267       H  0.01801626  0.42872758  0.13918277     0.11200
H2268       H  0.48462494  0.36329030  0.07292655     0.11200
H2269       H  0.48534634  0.32341671  0.11181734     0.11200
H2270       H  0.01868477  0.38869372  0.17818472     0.11200
C2271       C  0.49593435  0.13421655  0.09406401    -0.14900
C2272       C  0.49751266  0.10300262  0.10155697     0.07300
C2273       C  0.00036490  0.09459992  0.13244981    -0.14900
C2274       C  0.00058381  0.11675023  0.15543128    -0.14900
C2275       C  0.49778544  0.14779436  0.14804560     0.07300
C2276       C  0.49605142  0.15636258  0.11706236    -0.14900
H2277       H  0.49464977  0.14160353  0.07043132     0.11200
H2278       H  0.00284465  0.07080934  0.13897275     0.11200
H2279       H  0.00322679  0.10943075  0.17897230     0.11200
H2280       H  0.49487074  0.18023504  0.11047735     0.11200
O2281       O  0.49781039  0.05228280  0.58698470    -0.81700
O2282       O  0.50022668  0.04997647  0.91205271    -0.83200
O2283       O  0.54870845  0.08932255  0.49851709    -0.80300
O2284       O  0.94846285  0.08646148  0.50021986    -0.78600
O2285       O  0.91200567  0.04916219  0.50166299    -0.80400
O2286       O  0.58567051  0.05252691  0.49981965    -0.81400
O2287       O  0.49775017  0.08726093  0.94882755    -0.82700
O2288       O  0.49831398  0.08889881  0.54963130    -0.83000
Eu2289     Eu  0.49923841  0.06270330  0.50023110     2.42000
O2290       O  0.96841360  0.03127063  0.96778753    -0.90500
O2291       O  0.53070706  0.03294732  0.53211992    -0.94100
C2292       C  0.49747064  0.08040346  0.57787263     1.00600
C2293       C  0.49879711  0.07818584  0.92074240     1.00400
C2294       C  0.57683156  0.08069369  0.49863454     1.00400
C2295       C  0.92048357  0.07749667  0.50110069     0.98200
H2296       H  0.54292031  0.04460044  0.95557579     0.28000
O2297       O  0.53023807  0.03189320  0.96825077    -1.02900
H2298       H  0.95563464  0.04407665  0.54427827     0.28000
O2299       O  0.96857639  0.03156443  0.53170746    -1.05400
O2300       O  0.50220271  0.44998362  0.91313359    -0.82600
O2301       O  0.49819423  0.45104360  0.58845738    -0.82200
O2302       O  0.58552776  0.00048820  0.94925843    -0.80600
O2303       O  0.91361273  0.00028197  0.94832065    -0.84000
O2304       O  0.91324378  0.99839705  0.55073697    -0.81800
O2305       O  0.58564529  0.00319110  0.55252387    -0.80500
O2306       O  0.54948008  0.41167246  0.50002194    -0.82000
O2307       O  0.95000925  0.41364958  0.50144004    -0.83900
O2308       O  0.58632746  0.44855257  0.49814028    -0.80600
O2309       O  0.91402455  0.45133080  0.50315523    -0.83300
O2310       O  0.54924869  0.99868889  0.91181444    -0.79100
O2311       O  0.54886333  0.00316035  0.58951875    -0.79100
O2312       O  0.94978981  0.99988071  0.58791917    -0.78700
O2313       O  0.95038644  0.99999806  0.91133345    -0.82200
O2314       O  0.49972327  0.41323624  0.95045875    -0.81700
O2315       O  0.49915359  0.41379375  0.55157912    -0.80000
Eu2316     Eu  0.49978776  0.99994951  0.93745879     2.39800
Eu2317     Eu  0.49983804  0.00151058  0.56293029     2.39600
Eu2318     Eu  0.56192600  0.00170482  0.50142798     2.38400
Eu2319     Eu  0.93859170  0.99951311  0.50074524     2.39900
Eu2320     Eu  0.50033073  0.43804124  0.50084993     2.39800
O2321       O  0.97017742  0.46949975  0.53202352    -0.94400
O2322       O  0.53029713  0.46945651  0.96938319    -0.93300
C2323       C  0.50112000  0.42190727  0.92227198     1.00800
C2324       C  0.49806017  0.42281442  0.57973677     0.99500
C2325       C  0.57713636  0.99947322  0.92091705     0.98900
C2326       C  0.92235830  0.00004140  0.92013497     1.00900
C2327       C  0.92179617  0.99890573  0.57900313     0.99800
C2328       C  0.57688192  0.00347257  0.58077889     0.98700
C2329       C  0.57747520  0.42036761  0.49840041     0.98700
C2330       C  0.92214712  0.42296944  0.50265701     1.01300
H2331       H  0.54405944  0.45608711  0.54440588     0.28700
O2332       O  0.53161958  0.46900159  0.53174674    -1.06600
H2333       H  0.95624354  0.45660036  0.95605880     0.30800
O2334       O  0.96881173  0.46937749  0.96878350    -1.09100
O2335       O  0.49754023  0.20240164  0.66231231    -0.81700
O2336       O  0.49868207  0.19958791  0.83734110    -0.83200
O2337       O  0.54801917  0.16170475  0.74925572    -0.80300
O2338       O  0.94887917  0.16330063  0.74968815    -0.78600
O2339       O  0.91245032  0.20057903  0.75152327    -0.80400
O2340       O  0.58488199  0.19859362  0.74881393    -0.81400
O2341       O  0.49839674  0.16298333  0.79978076    -0.82700
O2342       O  0.49812797  0.16505526  0.69895434    -0.83000
Eu2343     Eu  0.49883699  0.18841613  0.74987720     2.39200
O2344       O  0.96849440  0.21896274  0.78182845    -0.90500
O2345       O  0.52949102  0.21935268  0.71852395    -0.94100
C2346       C  0.49745873  0.17416618  0.67086351     1.00600
C2347       C  0.49831913  0.17155843  0.82804906     1.00400
C2348       C  0.57609271  0.17036061  0.74879500     1.00400
C2349       C  0.92092013  0.17229857  0.75059373     0.98200
H2350       H  0.54276827  0.20573225  0.79378583     0.28000
O2351       O  0.53014424  0.21868095  0.78130931    -1.02900
H2352       H  0.95488072  0.20743661  0.70669878     0.28000
O2353       O  0.96781253  0.21984046  0.71942925    -1.05400
O2354       O  0.49822370  0.29986075  0.83874490    -0.82600
O2355       O  0.49759941  0.30202671  0.66474881    -0.82200
O2356       O  0.58646926  0.24979624  0.79985470    -0.80600
O2357       O  0.91292073  0.24989421  0.80142467    -0.84000
O2358       O  0.91137452  0.25119736  0.70238417    -0.81800
O2359       O  0.58455889  0.25023073  0.69871962    -0.80500
O2360       O  0.55075919  0.33600133  0.75231843    -0.82000
O2361       O  0.95029318  0.33821185  0.75194543    -0.83900
O2362       O  0.58727302  0.29876765  0.75078521    -0.80600
O2363       O  0.91363514  0.30111038  0.75185521    -0.83300
O2364       O  0.54994098  0.25032365  0.83712919    -0.79100
O2365       O  0.54749791  0.25213672  0.66206823    -0.79100
O2366       O  0.94755263  0.25302781  0.66485338    -0.78700
O2367       O  0.94970825  0.24869499  0.83833345    -0.82200
O2368       O  0.50007599  0.33701112  0.80182973    -0.81700
O2369       O  0.49829227  0.33879928  0.70204111    -0.80000
Eu2370     Eu  0.49957729  0.24986403  0.81287103     2.39800
Eu2371     Eu  0.49829451  0.25155519  0.68878110     2.39600
Eu2372     Eu  0.56085434  0.24948763  0.74985583     2.38400
Eu2373     Eu  0.93782352  0.25059782  0.75145034     2.39900
Eu2374     Eu  0.49988050  0.31240031  0.75158590     2.39800
O2375       O  0.96810285  0.28218734  0.72041454    -0.94400
O2376       O  0.53073147  0.28061917  0.78182495    -0.93300
C2377       C  0.49906255  0.32806788  0.82993180     1.00800
C2378       C  0.49761251  0.33013269  0.67378711     0.99500
C2379       C  0.57792010  0.25018859  0.82815215     0.98900
C2380       C  0.92164896  0.24912163  0.82959028     1.00900
C2381       C  0.91962990  0.25251437  0.67411305     0.99800
C2382       C  0.57562727  0.25135683  0.67052944     0.98700
C2383       C  0.57876512  0.32701927  0.75184608     0.98700
C2384       C  0.92228409  0.32934215  0.75214138     1.01300
H2385       H  0.54272016  0.29455045  0.70705101     0.28700
O2386       O  0.53018761  0.28171889  0.71967994    -1.06600
H2387       H  0.95614414  0.29407667  0.79537371     0.30800
O2388       O  0.96872148  0.28150786  0.78249222    -1.09100
O2389       O  0.83623101  0.49920475  0.69913429    -0.81700
O2390       O  0.66376785  0.49848936  0.69933422    -0.83200
O2391       O  0.75204080  0.44941571  0.66410832    -0.80300
O2392       O  0.74776662  0.05061037  0.66293257    -0.78600
O2393       O  0.74693151  0.08762495  0.69999574    -0.80400
O2394       O  0.75102867  0.41230381  0.70096912    -0.81400
O2395       O  0.70054414  0.49755393  0.66230837    -0.82700
O2396       O  0.79970080  0.50062292  0.66194076    -0.83000
Eu2397     Eu  0.74999292  0.49977011  0.68788566     2.39200
O2398       O  0.71856557  0.03139145  0.71938197    -0.90500
O2399       O  0.78078371  0.46851326  0.71882220    -0.94100
C2400       C  0.82772148  0.50025647  0.67084194     1.00600
C2401       C  0.67254698  0.49765991  0.67112207     1.00400
C2402       C  0.75171977  0.42126766  0.67285329     1.00400
C2403       C  0.74691041  0.07878686  0.67180586     0.98200
H2404       H  0.70657261  0.45561871  0.70658715     0.28000
O2405       O  0.71902628  0.46869912  0.71913869    -1.02900
H2406       H  0.79284122  0.04478144  0.70615857     0.28000
O2407       O  0.78036188  0.03200771  0.71891351    -1.05400
O2408       O  0.66313265  0.49963143  0.80070760    -0.82600
O2409       O  0.83571881  0.50197904  0.80003787    -0.82200
O2410       O  0.70003662  0.41248386  0.75157953    -0.80600
O2411       O  0.69858954  0.08712260  0.74923357    -0.84000
O2412       O  0.79891280  0.08820824  0.75068343    -0.81800
O2413       O  0.79982475  0.41262944  0.75218197    -0.80500
O2414       O  0.74996864  0.45118966  0.83763325    -0.82000
O2415       O  0.75195267  0.05138280  0.83680426    -0.83900
O2416       O  0.75054338  0.41383170  0.80094200    -0.80600
O2417       O  0.74872043  0.08836346  0.79981528    -0.83300
O2418       O  0.66302374  0.44926315  0.75157356    -0.79100
O2419       O  0.83629889  0.44990866  0.75158699    -0.79100
O2420       O  0.83559188  0.05107155  0.75026652    -0.78700
O2421       O  0.66236852  0.04965494  0.75041774    -0.82200
O2422       O  0.70001953  0.49936057  0.83756269    -0.81700
O2423       O  0.79909234  0.50244006  0.83716813    -0.80000
Eu2424     Eu  0.68784647  0.49981418  0.75002917     2.39800
Eu2425     Eu  0.81133969  0.50005779  0.74956422     2.39600
Eu2426     Eu  0.74992607  0.43804494  0.75057190     2.38400
Eu2427     Eu  0.74908847  0.06268796  0.75014848     2.39900
Eu2428     Eu  0.74944070  0.50069827  0.81161520     2.39800
O2429       O  0.78034273  0.03176481  0.78105179    -0.94400
O2430       O  0.71859349  0.46893828  0.78132234    -0.93300
C2431       C  0.67195914  0.49931496  0.82895147     1.00800
C2432       C  0.82709680  0.50258658  0.82829175     0.99500
C2433       C  0.67191762  0.42104884  0.75194951     0.98900
C2434       C  0.67064785  0.07793823  0.74949852     1.00900
C2435       C  0.82693646  0.07934156  0.75056036     0.99800
C2436       C  0.82781164  0.42163350  0.75243472     0.98700
C2437       C  0.75048887  0.42295423  0.82901790     0.98700
C2438       C  0.75048627  0.07953024  0.82791965     1.01300
H2439       H  0.79331319  0.45712651  0.79419357     0.28700
O2440       O  0.78066388  0.46948024  0.78118730    -1.06600
H2441       H  0.70594118  0.04458104  0.79462043     0.30800
O2442       O  0.71861424  0.03194523  0.78194095    -1.09100
O2443       O  0.69894876  0.16364952  0.00250965    -0.81700
O2444       O  0.69962006  0.33802182  0.00023498    -0.83200
O2445       O  0.66154319  0.25096777  0.54856864    -0.80300
O2446       O  0.66249674  0.25051075  0.95001448    -0.78600
O2447       O  0.69923835  0.25059290  0.91304148    -0.80400
O2448       O  0.69748129  0.25112376  0.58634163    -0.81400
O2449       O  0.66292001  0.30097386  0.99971107    -0.82700
O2450       O  0.66255428  0.20095286  0.00111774    -0.83000
Eu2451     Eu  0.68812596  0.25089592  0.99976142     2.39200
O2452       O  0.71857906  0.28205314  0.96850960    -0.90500
O2453       O  0.71826549  0.21952586  0.53147066    -0.94100
C2454       C  0.67096564  0.17265868  0.00223536     1.00600
C2455       C  0.67158978  0.32920772  0.99996951     1.00400
C2456       C  0.66959571  0.25113119  0.57700581     1.00400
C2457       C  0.67118777  0.25048764  0.92180645     0.98200
H2458       H  0.70481633  0.29498630  0.54317549     0.28000
O2459       O  0.71795103  0.28228800  0.53101886    -1.02900
H2460       H  0.70565215  0.20650047  0.95630364     0.28000
O2461       O  0.71843158  0.21924950  0.96884616    -1.05400
O2462       O  0.79907096  0.33827765  0.99997969    -0.82600
O2463       O  0.79854370  0.16261145  0.99992547    -0.82200
O2464       O  0.74717278  0.30163992  0.58682633    -0.80600
O2465       O  0.74956641  0.30066824  0.91249278    -0.84000
O2466       O  0.74864560  0.20032264  0.91280585    -0.81800
O2467       O  0.74796246  0.20119696  0.58816092    -0.80500
O2468       O  0.83463404  0.25402375  0.55359332    -0.82000
O2469       O  0.83618413  0.24897193  0.95056076    -0.83900
O2470       O  0.79722047  0.25276301  0.58995236    -0.80600
O2471       O  0.79964721  0.24947541  0.91329368    -0.83300
O2472       O  0.74792632  0.33877088  0.54997318    -0.79100
O2473       O  0.75009489  0.16409816  0.55122265    -0.79100
O2474       O  0.74910226  0.16336237  0.95000233    -0.78700
O2475       O  0.74893385  0.33758530  0.94968991    -0.82200
O2476       O  0.83563225  0.30106529  0.00060357    -0.81700
O2477       O  0.83525690  0.19966065  0.00107450    -0.80000
Eu2478     Eu  0.74953216  0.31272148  0.99993501     2.39800
Eu2479     Eu  0.74912275  0.18850538  0.00048076     2.39600
Eu2480     Eu  0.74827523  0.25123266  0.56268898     2.38400
Eu2481     Eu  0.74940519  0.25047835  0.93796043     2.39900
Eu2482     Eu  0.81104778  0.25040213  0.00053232     2.39800
O2483       O  0.78003598  0.21948531  0.96938955    -0.94400
O2484       O  0.77982959  0.28246753  0.53242139    -0.93300
C2485       C  0.82704013  0.32937344  0.00042298     1.00800
C2486       C  0.82655519  0.17141055  0.00039442     0.99500
C2487       C  0.74737737  0.32982604  0.57810615     0.98900
C2488       C  0.74928761  0.32886242  0.92146719     1.00900
C2489       C  0.74880973  0.17217583  0.92176308     0.99800
C2490       C  0.74899553  0.17298675  0.57936794     0.98700
C2491       C  0.82539464  0.25402750  0.58166637     0.98700
C2492       C  0.82763197  0.24902024  0.92229792     1.01300
H2493       H  0.79272406  0.20781401  0.54577191     0.28700
O2494       O  0.78027276  0.22026356  0.53265375    -1.06600
H2495       H  0.79318796  0.29405115  0.95630563     0.30800
O2496       O  0.78046847  0.28145316  0.96903339    -1.09100
C2497       C  0.73756453  0.13275761  0.65514270    -0.14900
C2498       C  0.74662958  0.10273120  0.64800306     0.07300
C2499       C  0.75659822  0.09604839  0.61819098    -0.14900
C2500       C  0.75771476  0.11897642  0.59601735    -0.14900
C2501       C  0.74867054  0.14901270  0.60314255     0.07300
C2502       C  0.73867202  0.15570481  0.63294888    -0.14900
H2503       H  0.72956899  0.13852545  0.67788637     0.11200
H2504       H  0.76405334  0.07320113  0.61210945     0.11200
H2505       H  0.76584113  0.11319114  0.57332467     0.11200
H2506       H  0.73135469  0.17859222  0.63904632     0.11200
C2507       C  0.75225915  0.40647341  0.61773076    -0.14900
C2508       C  0.75121725  0.39779529  0.64870879     0.07300
C2509       C  0.74828115  0.36671372  0.65623589    -0.14900
C2510       C  0.74638290  0.34474560  0.63323212    -0.14900
C2511       C  0.74762178  0.35338005  0.60224906     0.07300
C2512       C  0.75036728  0.38450060  0.59472328    -0.14900
H2513       H  0.75442075  0.43028264  0.61115581     0.11200
H2514       H  0.74721255  0.35931300  0.67987724     0.11200
H2515       H  0.74414570  0.32094735  0.63981188     0.11200
H2516       H  0.75137721  0.39190930  0.57108275     0.11200
C2517       C  0.76081316  0.36944393  0.84591123    -0.14900
C2518       C  0.75099661  0.39923649  0.85293335     0.07300
C2519       C  0.74111199  0.40590803  0.88276191    -0.14900
C2520       C  0.74046495  0.38299727  0.90500144    -0.14900
C2521       C  0.74977984  0.35302761  0.89784433     0.07300
C2522       C  0.76013358  0.34653751  0.86812506    -0.14900
H2523       H  0.76904887  0.36380733  0.82321916     0.11200
H2524       H  0.73334893  0.42867239  0.88877664     0.11200
H2525       H  0.73232302  0.38867132  0.92771469     0.11200
H2526       H  0.76794806  0.32380095  0.86209206     0.11200
C2527       C  0.73546177  0.13134339  0.84663287    -0.14900
C2528       C  0.75034461  0.10335786  0.85174351     0.07300
C2529       C  0.76449132  0.09806190  0.88006028    -0.14900
C2530       C  0.76369247  0.12034445  0.90296510    -0.14900
C2531       C  0.74888200  0.14834991  0.89786466     0.07300
C2532       C  0.73472892  0.15366251  0.86952024    -0.14900
H2533       H  0.72402724  0.13578999  0.82511594     0.11200
H2534       H  0.77637360  0.07677481  0.88440553     0.11200
H2535       H  0.77507844  0.11588642  0.92450263     0.11200
H2536       H  0.72287323  0.17496726  0.86518169     0.11200
C2537       C  0.90393774  0.11787344  0.74394663    -0.14900
C2538       C  0.89684308  0.14855921  0.75052564     0.07300
C2539       C  0.86649060  0.15633016  0.75706481    -0.14900
C2540       C  0.84379252  0.13392215  0.75709219    -0.14900
C2541       C  0.85091663  0.10321191  0.75058247     0.07300
C2542       C  0.88125877  0.09547980  0.74399159    -0.14900
H2543       H  0.92702485  0.11111979  0.73858264     0.11200
H2544       H  0.86024724  0.17972476  0.76238980     0.11200
H2545       H  0.82069323  0.14065179  0.76243102     0.11200
H2546       H  0.88751845  0.07209687  0.73863846     0.11200
C2547       C  0.90567318  0.38432101  0.75171657    -0.14900
C2548       C  0.89823816  0.35305974  0.75298431     0.07300
C2549       C  0.86745429  0.34457570  0.75517614    -0.14900
C2550       C  0.84461463  0.36677297  0.75548817    -0.14900
C2551       C  0.85199770  0.39801611  0.75354129     0.07300
C2552       C  0.88282884  0.40652506  0.75204826    -0.14900
H2553       H  0.92913476  0.39169513  0.75020091     0.11200
H2554       H  0.86089018  0.32071321  0.75651318     0.11200
H2555       H  0.82115675  0.35938517  0.75698090     0.11200
H2556       H  0.88939288  0.43038756  0.75073630     0.11200
C2557       C  0.63049155  0.15439339  0.74264994    -0.14900
C2558       C  0.60002819  0.14639998  0.74832384     0.07300
C2559       C  0.59289381  0.11548662  0.75379664    -0.14900
C2560       C  0.61577245  0.09323533  0.75399420    -0.14900
C2561       C  0.64630737  0.10138898  0.74876558     0.07300
C2562       C  0.65332636  0.13218682  0.74285688    -0.14900
H2563       H  0.63678743  0.17791156  0.73802138     0.11200
H2564       H  0.56969074  0.10850462  0.75828739     0.11200
H2565       H  0.60953324  0.06969070  0.75858836     0.11200
H2566       H  0.67651509  0.13921390  0.73836370     0.11200
C2567       C  0.59494884  0.38188587  0.75601490    -0.14900
C2568       C  0.60275536  0.35087846  0.75245197     0.07300
C2569       C  0.63363061  0.34303869  0.74935104    -0.14900
C2570       C  0.65607912  0.36573122  0.74947691    -0.14900
C2571       C  0.64820424  0.39681342  0.75263577     0.07300
C2572       C  0.61735963  0.40454555  0.75610591    -0.14900
H2573       H  0.57144281  0.38876567  0.75868707     0.11200
H2574       H  0.64050131  0.31938365  0.74658368     0.11200
H2575       H  0.67959446  0.35889675  0.74677701     0.11200
H2576       H  0.61043401  0.42818505  0.75883111     0.11200
C2577       C  0.90197655  0.26220290  0.62051966    -0.14900
C2578       C  0.89528216  0.25364142  0.65074841     0.07300
C2579       C  0.86503812  0.24646752  0.65848336    -0.14900
C2580       C  0.84213089  0.24726679  0.63628576    -0.14900
C2581       C  0.84901573  0.25511648  0.60585495     0.07300
C2582       C  0.87911639  0.26301176  0.59837260    -0.14900
H2583       H  0.92491936  0.26832862  0.61391841     0.11200
H2584       H  0.85910085  0.23980336  0.68160743     0.11200
H2585       H  0.81918500  0.24108798  0.64282361     0.11200
H2586       H  0.88512371  0.26964379  0.57526007     0.11200
C2587       C  0.63034942  0.25041812  0.65438872    -0.14900
C2588       C  0.59942791  0.25171620  0.64633547     0.07300
C2589       C  0.59168986  0.25311801  0.61507419    -0.14900
C2590       C  0.61435377  0.25295684  0.59250962    -0.14900
C2591       C  0.64529030  0.25144843  0.60067669     0.07300
C2592       C  0.65292281  0.25028606  0.63191524    -0.14900
H2593       H  0.63724850  0.24936663  0.67816772     0.11200
H2594       H  0.56812068  0.25423985  0.60798771     0.11200
H2595       H  0.60760301  0.25399913  0.56868484     0.11200
H2596       H  0.67644728  0.24914393  0.63914185     0.11200
C2597       C  0.63273514  0.25232119  0.84410144    -0.14900
C2598       C  0.60182814  0.25033517  0.85208199     0.07300
C2599       C  0.59395458  0.24832403  0.88323004    -0.14900
C2600       C  0.61641425  0.24828144  0.90582868    -0.14900
C2601       C  0.64732568  0.25030764  0.89784447     0.07300
C2602       C  0.65520318  0.25226938  0.86670794    -0.14900
H2603       H  0.63964129  0.25397260  0.82035866     0.11200
H2604       H  0.57039434  0.24667149  0.89023858     0.11200
H2605       H  0.60949033  0.24662275  0.92956752     0.11200
H2606       H  0.67877149  0.25388399  0.85972150     0.11200
C2607       C  0.90527139  0.25067980  0.88459473    -0.14900
C2608       C  0.89767387  0.24896835  0.85339257     0.07300
C2609       C  0.86680983  0.24741666  0.84505501    -0.14900
C2610       C  0.84410786  0.24737145  0.86737397    -0.14900
C2611       C  0.85169921  0.24888076  0.89858784     0.07300
C2612       C  0.88255378  0.25063376  0.90692937    -0.14900
H2613       H  0.92878034  0.25216411  0.89182110     0.11200
H2614       H  0.86009253  0.24617332  0.82122827     0.11200
H2615       H  0.82059898  0.24611518  0.86010459     0.11200
H2616       H  0.88923599  0.25208419  0.93075359     0.11200
C2617       C  0.86703498  0.40808191  0.50665214    -0.14900
C2618       C  0.89771937  0.39955137  0.50314671     0.07300
C2619       C  0.90478234  0.36839607  0.49957919    -0.14900
C2620       C  0.88182370  0.34631366  0.49944293    -0.14900
C2621       C  0.85112892  0.35472338  0.50285144     0.07300
C2622       C  0.84399921  0.38593743  0.50644304    -0.14900
H2623       H  0.86074548  0.43188886  0.50952130     0.11200
H2624       H  0.92809682  0.36097640  0.49665520     0.11200
H2625       H  0.88821212  0.32255696  0.49642873     0.11200
H2626       H  0.82063992  0.39327452  0.50920385     0.11200
C2627       C  0.86656770  0.09475164  0.51014603    -0.14900
C2628       C  0.89663601  0.10159104  0.50158348     0.07300
C2629       C  0.90390439  0.13194062  0.49364128    -0.14900
C2630       C  0.88171553  0.15486891  0.49412507    -0.14900
C2631       C  0.85163238  0.14805942  0.50250674     0.07300
C2632       C  0.84432711  0.11771529  0.51058081    -0.14900
H2633       H  0.86024511  0.07170158  0.51670820     0.11200
H2634       H  0.92677620  0.13800466  0.48674338     0.11200
H2635       H  0.88807449  0.17789704  0.48752751     0.11200
H2636       H  0.82141685  0.11171798  0.51741466     0.11200
C2637       C  0.63160183  0.40454048  0.49065466    -0.14900
C2638       C  0.60121092  0.39645017  0.49654348     0.07300
C2639       C  0.59383831  0.36539460  0.50053584    -0.14900
C2640       C  0.61651097  0.34306847  0.49956756    -0.14900
C2641       C  0.64704769  0.35134090  0.49473385     0.07300
C2642       C  0.65425976  0.38223587  0.48973484    -0.14900
H2643       H  0.63800250  0.42819381  0.48694517     0.11200
H2644       H  0.57063214  0.35833872  0.50489079     0.11200
H2645       H  0.61015430  0.31940687  0.50333156     0.11200
H2646       H  0.67748295  0.38927941  0.48544186     0.11200
C2647       C  0.59391540  0.13528258  0.49126110    -0.14900
C2648       C  0.60089571  0.10450082  0.49754013     0.07300
C2649       C  0.63136593  0.09646748  0.50319190    -0.14900
C2650       C  0.65417283  0.11866616  0.50346581    -0.14900
C2651       C  0.64715984  0.14950939  0.49802396     0.07300
C2652       C  0.61680526  0.15755215  0.49151127    -0.14900
H2653       H  0.57078514  0.14219717  0.48630913     0.11200
H2654       H  0.63764548  0.07297636  0.50796524     0.11200
H2655       H  0.67727355  0.11165092  0.50840536     0.11200
H2656       H  0.61066888  0.18108071  0.48669757     0.11200
C2657       C  0.86780425  0.99493388  0.90481864    -0.14900
C2658       C  0.89834937  0.99950375  0.89643514     0.07300
C2659       C  0.90554886  0.00344683  0.86535395    -0.14900
C2660       C  0.88265218  0.00319080  0.84321698    -0.14900
C2661       C  0.85206015  0.99902325  0.85166911     0.07300
C2662       C  0.84493054  0.99468194  0.88270576    -0.14900
H2663       H  0.86147373  0.99150199  0.92853384     0.11200
H2664       H  0.92883260  0.00700453  0.85811514     0.11200
H2665       H  0.88894943  0.00659579  0.81948944     0.11200
H2666       H  0.82165820  0.99111615  0.88998176     0.11200
C2667       C  0.59464336  0.99169247  0.86673990    -0.14900
C2668       C  0.60124702  0.99954728  0.89725328     0.07300
C2669       C  0.63118294  0.00775788  0.90499390    -0.14900
C2670       C  0.65408073  0.00787363  0.88284863    -0.14900
C2671       C  0.64756739  0.99982381  0.85241926     0.07300
C2672       C  0.61755626  0.99182117  0.84457603    -0.14900
H2673       H  0.57183023  0.98520346  0.86000820     0.11200
H2674       H  0.63693993  0.01433860  0.92819472     0.11200
H2675       H  0.67685413  0.01451978  0.88954653     0.11200
H2676       H  0.61177344  0.98541182  0.82132857     0.11200
C2677       C  0.63133496  0.99907384  0.59663787    -0.14900
C2678       C  0.60077161  0.00386351  0.60470387     0.07300
C2679       C  0.59343928  0.00871649  0.63569111    -0.14900
C2680       C  0.61622108  0.00867378  0.65802702    -0.14900
C2681       C  0.64677580  0.00363611  0.64984874     0.07300
C2682       C  0.65403679  0.99900026  0.61890258    -0.14900
H2683       H  0.63779446  0.99506036  0.57304769     0.11200
H2684       H  0.57013426  0.01259404  0.64269922     0.11200
H2685       H  0.60985604  0.01251884  0.68167838     0.11200
H2686       H  0.67728558  0.99494084  0.61181511     0.11200
C2687       C  0.90515788  0.00349038  0.63378810    -0.14900
C2688       C  0.89775648  0.99881397  0.60282069     0.07300
C2689       C  0.86704868  0.99471860  0.59476249    -0.14900
C2690       C  0.84429699  0.99545850  0.61708960    -0.14900
C2691       C  0.85169111  0.00021825  0.64803558     0.07300
C2692       C  0.88241318  0.00422271  0.65610751    -0.14900
H2693       H  0.92853174  0.00686428  0.64082420     0.11200
H2694       H  0.86051178  0.99093348  0.57115273     0.11200
H2695       H  0.82091377  0.99210347  0.61007977     0.11200
H2696       H  0.88895450  0.00805997  0.67970910     0.11200
C2697       C  0.98516103  0.13049366  0.90270485    -0.14900
C2698       C  0.49831261  0.10189158  0.89683744     0.07300
C2699       C  0.51076172  0.09600287  0.86781997    -0.14900
C2700       C  0.51057014  0.11864323  0.84532845    -0.14900
C2701       C  0.49796860  0.14751484  0.85153068     0.07300
C2702       C  0.98499859  0.15316118  0.88025570    -0.14900
H2703       H  0.97469312  0.13529176  0.92464378     0.11200
H2704       H  0.52104014  0.07405712  0.86266087     0.11200
H2705       H  0.52072735  0.11374441  0.82326240     0.11200
H2706       H  0.97443889  0.17500401  0.88529581     0.11200
C2707       C  0.48435875  0.34757486  0.88162886    -0.14900
C2708       C  0.49927318  0.35203862  0.85358362     0.07300
C2709       C  0.01436812  0.37987403  0.84789731    -0.14900
C2710       C  0.01521226  0.40256164  0.87036253    -0.14900
C2711       C  0.50079157  0.39786024  0.89874280     0.07300
C2712       C  0.48513845  0.37033416  0.90406079    -0.14900
H2713       H  0.47189687  0.32664293  0.88606379     0.11200
H2714       H  0.02611622  0.38378227  0.82644774     0.11200
H2715       H  0.02749175  0.42358059  0.86582110     0.11200
H2716       H  0.47316619  0.36659442  0.92541472     0.11200
C2717       C  0.98633981  0.40577022  0.63310923    -0.14900
C2718       C  0.49696527  0.39904670  0.60374139     0.07300
C2719       C  0.50665241  0.36912300  0.59720923    -0.14900
C2720       C  0.50673110  0.34682002  0.62000644    -0.14900
C2721       C  0.49707095  0.35391679  0.64983789     0.07300
C2722       C  0.98652650  0.38343196  0.65601360    -0.14900
H2723       H  0.97773412  0.42837997  0.63849692     0.11200
H2724       H  0.51473518  0.36304055  0.57458010     0.11200
H2725       H  0.51483213  0.32408536  0.61434819     0.11200
H2726       H  0.97799853  0.38922982  0.67855392     0.11200
C2727       C  0.49608427  0.13571879  0.59321610    -0.14900
C2728       C  0.49604868  0.10458636  0.60148081     0.07300
C2729       C  0.99509346  0.09663678  0.63266010    -0.14900
C2730       C  0.99514118  0.11929505  0.65506108    -0.14900
C2731       C  0.49631055  0.15043092  0.64687141     0.07300
C2732       C  0.49624832  0.15843172  0.61570168    -0.14900
H2733       H  0.49640350  0.14258622  0.56939433     0.11200
H2734       H  0.99458699  0.07291467  0.63984891     0.11200
H2735       H  0.99464326  0.11234800  0.67885654     0.11200
H2736       H  0.49667100  0.18219494  0.60863169     0.11200
O2737       O  0.50080953  0.55082015  0.08707524    -0.81700
O2738       O  0.50013451  0.54967679  0.41303823    -0.83200
O2739       O  0.54882365  0.58834695  0.00023057    -0.80300
O2740       O  0.94994083  0.58843010  0.99838155    -0.78600
O2741       O  0.91342548  0.55123159  0.99749868    -0.80400
O2742       O  0.58528245  0.55107759  0.00111096    -0.81400
O2743       O  0.50052972  0.58672322  0.45008897    -0.82700
O2744       O  0.50014629  0.58773654  0.05001308    -0.83000
Eu2745     Eu  0.49939634  0.56260557  0.99984026     2.42000
O2746       O  0.97091824  0.53113840  0.46939327    -0.90500
O2747       O  0.53043392  0.53204513  0.03128750    -0.94100
C2748       C  0.50097195  0.57895940  0.07821040     1.00600
C2749       C  0.50006198  0.57786786  0.42191977     1.00400
C2750       C  0.57676286  0.57935541  0.00064299     1.00400
C2751       C  0.92196446  0.57951391  0.99749330     0.98200
H2752       H  0.54526929  0.54350443  0.45600264     0.28000
O2753       O  0.53255755  0.53101935  0.46885922    -1.02900
H2754       H  0.95585102  0.54481086  0.04367769     0.28000
O2755       O  0.96849173  0.53197670  0.03111566    -1.05400
O2756       O  0.50125146  0.95001282  0.41351158    -0.82600
O2757       O  0.49607077  0.95130244  0.08749134    -0.82200
O2758       O  0.58799697  0.49866348  0.44982079    -0.80600
O2759       O  0.91416767  0.50053116  0.45123322    -0.84000
O2760       O  0.91304468  0.50109477  0.04988822    -0.81800
O2761       O  0.58624925  0.49970054  0.05050557    -0.80500
O2762       O  0.54967768  0.91335721  0.00138445    -0.82000
O2763       O  0.94982172  0.91293327  0.00002654    -0.83900
O2764       O  0.58609780  0.95070377  0.00073862    -0.80600
O2765       O  0.91287265  0.94974048  0.99933923    -0.83300
O2766       O  0.55149450  0.49834878  0.41256336    -0.79100
O2767       O  0.54972420  0.50031402  0.08767600    -0.79100
O2768       O  0.94981351  0.50043351  0.08692880    -0.78700
O2769       O  0.95079163  0.49991993  0.41409150    -0.82200
O2770       O  0.50069936  0.91313248  0.45069261    -0.81700
O2771       O  0.49702472  0.91423771  0.05054373    -0.80000
Eu2772     Eu  0.50145300  0.49965821  0.43829338     2.39800
Eu2773     Eu  0.49960909  0.50085744  0.06208596     2.39600
Eu2774     Eu  0.56101079  0.50053363  0.00049005     2.38400
Eu2775     Eu  0.93802380  0.50080392  0.99960446     2.39900
Eu2776     Eu  0.49947743  0.93864418  0.00023905     2.39800
O2777       O  0.96783311  0.96956200  0.03068939    -0.94400
O2778       O  0.53187911  0.96994539  0.47017815    -0.93300
C2779       C  0.50085359  0.92186181  0.42240334     1.00800
C2780       C  0.49593123  0.92307209  0.07870530     0.99500
C2781       C  0.57952811  0.49807130  0.42151626     0.98900
C2782       C  0.92278383  0.50039725  0.42300090     1.00900
C2783       C  0.92180017  0.50072661  0.07811687     0.99800
C2784       C  0.57777961  0.49976489  0.07878617     0.98700
C2785       C  0.57770437  0.92235465  0.00136320     0.98700
C2786       C  0.92174406  0.92154063  0.99988358     1.01300
H2787       H  0.54255327  0.95747472  0.04445517     0.28700
O2788       O  0.53005869  0.96992502  0.03140491    -1.06600
H2789       H  0.95748006  0.95542454  0.45742762     0.30800
O2790       O  0.96992176  0.96849903  0.46997682    -1.09100
O2791       O  0.50020705  0.69985099  0.16355997    -0.81700
O2792       O  0.50183210  0.69991438  0.33778585    -0.83200
O2793       O  0.55052260  0.66275102  0.24949533    -0.80300
O2794       O  0.94998962  0.66303502  0.25360941    -0.78600
O2795       O  0.91327688  0.70006621  0.25360337    -0.80400
O2796       O  0.58694153  0.70006252  0.24885778    -0.81400
O2797       O  0.50123855  0.66286669  0.30075427    -0.82700
O2798       O  0.50115776  0.66266644  0.20042429    -0.83000
Eu2799     Eu  0.50034769  0.68778228  0.25057288     2.39200
O2800       O  0.96955834  0.71894290  0.28160042    -0.90500
O2801       O  0.53002326  0.71916210  0.21887114    -0.94100
C2802       C  0.50118356  0.67165290  0.17227214     1.00600
C2803       C  0.50164290  0.67168611  0.32894806     1.00400
C2804       C  0.57851780  0.67172735  0.24901185     1.00400
C2805       C  0.92196935  0.67193182  0.25443882     0.98200
H2806       H  0.54452239  0.70626262  0.29400427     0.28000
O2807       O  0.53151598  0.71876157  0.28144646    -1.02900
H2808       H  0.95621524  0.70533455  0.20704994     0.28000
O2809       O  0.96883446  0.71838314  0.21944994    -1.05400
O2810       O  0.49867109  0.80056401  0.33720445    -0.82600
O2811       O  0.49809227  0.80069704  0.16305237    -0.82200
O2812       O  0.58723486  0.75127893  0.29921338    -0.80600
O2813       O  0.91386047  0.74889972  0.30088091    -0.84000
O2814       O  0.91246187  0.74696230  0.20071766    -0.81800
O2815       O  0.58527881  0.74881143  0.19900409    -0.80500
O2816       O  0.54911872  0.83737336  0.24997196    -0.82000
O2817       O  0.94853636  0.83643714  0.25119653    -0.83900
O2818       O  0.58574613  0.80022854  0.24924719    -0.80600
O2819       O  0.91209236  0.79914682  0.25127740    -0.83300
O2820       O  0.55108090  0.75204363  0.33678697    -0.79100
O2821       O  0.54840418  0.74952857  0.16210593    -0.79100
O2822       O  0.94881728  0.74837847  0.16336375    -0.78700
O2823       O  0.95068665  0.74792909  0.33780683    -0.82200
O2824       O  0.49934975  0.83754391  0.30009035    -0.81700
O2825       O  0.49799571  0.83771245  0.20011036    -0.80000
Eu2826     Eu  0.50063995  0.75007310  0.31238158     2.39800
Eu2827     Eu  0.49880896  0.75015358  0.18808406     2.39600
Eu2828     Eu  0.56114690  0.75003231  0.24952666     2.38400
Eu2829     Eu  0.93830544  0.74965248  0.25061384     2.39900
Eu2830     Eu  0.49907089  0.81211708  0.25003387     2.39800
O2831       O  0.96782988  0.78143452  0.21897140    -0.94400
O2832       O  0.53062796  0.78129873  0.28074801    -0.93300
C2833       C  0.49880850  0.82876528  0.32830428     1.00800
C2834       C  0.49768398  0.82895545  0.17188330     0.99500
C2835       C  0.57901568  0.75208017  0.32758186     0.98900
C2836       C  0.92264215  0.74811427  0.32904504     1.00900
C2837       C  0.92089119  0.74693781  0.17238728     0.99800
C2838       C  0.57647117  0.74891929  0.17082086     0.98700
C2839       C  0.57714695  0.82846000  0.24958490     0.98700
C2840       C  0.92053093  0.82744034  0.25148279     1.01300
H2841       H  0.54243980  0.79395218  0.20582408     0.28700
O2842       O  0.53001148  0.78125476  0.21870399    -1.06600
H2843       H  0.95627107  0.79332170  0.29445802     0.30800
O2844       O  0.96899559  0.78082872  0.28166163    -1.09100
O2845       O  0.83435005  0.99894603  0.19801491    -0.81700
O2846       O  0.66172286  0.00210244  0.20043359    -0.83200
O2847       O  0.74819370  0.95167958  0.16132325    -0.80300
O2848       O  0.74903031  0.55139405  0.16402854    -0.78600
O2849       O  0.75024423  0.58819858  0.20132597    -0.80400
O2850       O  0.75149647  0.91425779  0.19786346    -0.81400
O2851       O  0.69807084  0.00292649  0.16302994    -0.82700
O2852       O  0.79738721  0.00084541  0.16121890    -0.83000
Eu2853     Eu  0.74826002  0.00121717  0.18783913     2.39200
O2854       O  0.72004446  0.53172509  0.21963917    -0.90500
O2855       O  0.77958571  0.96944095  0.21785420    -0.94100
C2856       C  0.82546489  0.99991326  0.16981603     1.00600
C2857       C  0.67010822  0.00304253  0.17206889     1.00400
C2858       C  0.75030787  0.92347176  0.16983963     1.00400
C2859       C  0.74932762  0.57949833  0.17308869     0.98200
H2860       H  0.70476830  0.95690518  0.20540348     0.28000
O2861       O  0.71758037  0.96931846  0.21829465    -1.02900
H2862       H  0.79419716  0.54519423  0.20707596     0.28000
O2863       O  0.78176112  0.53216807  0.21963362    -1.05400
O2864       O  0.66335733  0.00073496  0.30115702    -0.82600
O2865       O  0.83682172  0.99767372  0.29972199    -0.82200
O2866       O  0.69957030  0.91207988  0.24810034    -0.80600
O2867       O  0.70048043  0.58735960  0.25181903    -0.84000
O2868       O  0.80011229  0.58836491  0.25249417    -0.81800
O2869       O  0.79871787  0.91213045  0.24878053    -0.80500
O2870       O  0.74920012  0.94883291  0.33558932    -0.82000
O2871       O  0.75237126  0.54981324  0.33838223    -0.83900
O2872       O  0.74902653  0.91183024  0.29854098    -0.80600
O2873       O  0.75159629  0.58716275  0.30177268    -0.83300
O2874       O  0.66320611  0.94942768  0.25032471    -0.79100
O2875       O  0.83563292  0.94896268  0.24918831    -0.79100
O2876       O  0.83695709  0.55145538  0.25195244    -0.78700
O2877       O  0.66407682  0.55000295  0.25040329    -0.82200
O2878       O  0.70043057  0.00081348  0.33787449    -0.81700
O2879       O  0.80025230  0.99730974  0.33693868    -0.80000
Eu2880     Eu  0.68770467  0.00031425  0.25048403     2.39800
Eu2881     Eu  0.81119129  0.99943625  0.24932118     2.39600
Eu2882     Eu  0.74906004  0.93792852  0.24869377     2.38400
Eu2883     Eu  0.75064277  0.56257786  0.25124526     2.39900
Eu2884     Eu  0.75013798  0.99935745  0.31185174     2.39800
O2885       O  0.78226398  0.53184759  0.28174515    -0.94400
O2886       O  0.71870233  0.96866782  0.28078097    -0.93300
C2887       C  0.67228325  0.00094726  0.32934547     1.00800
C2888       C  0.82829012  0.99704858  0.32807665     0.99500
C2889       C  0.67163258  0.92107121  0.24916098     0.98900
C2890       C  0.67251512  0.57835260  0.25103808     1.00900
C2891       C  0.82813251  0.57959481  0.25278828     0.99800
C2892       C  0.82679804  0.92076989  0.24922501     0.98700
C2893       C  0.74919623  0.92066595  0.32678047     0.98700
C2894       C  0.75212882  0.57806736  0.32988661     1.01300
H2895       H  0.79276902  0.95525133  0.29253004     0.28700
O2896       O  0.78024230  0.96828652  0.28007787    -1.06600
H2897       H  0.70719954  0.54351840  0.29496174     0.30800
O2898       O  0.71991578  0.53114732  0.28203679    -1.09100
O2899       O  0.70114785  0.66325307  0.50059162    -0.81700
O2900       O  0.70205769  0.83851627  0.49856439    -0.83200
O2901       O  0.66249437  0.75112380  0.05013641    -0.80300
O2902       O  0.66512053  0.75247478  0.44861186    -0.78600
O2903       O  0.70187653  0.75281222  0.41162613    -0.80400
O2904       O  0.69895839  0.75063704  0.08747689    -0.81400
O2905       O  0.66511675  0.80165531  0.49848029    -0.82700
O2906       O  0.66439802  0.70025814  0.49947923    -0.83000
Eu2907     Eu  0.68927131  0.75092923  0.49949413     2.39200
O2908       O  0.72087645  0.78176038  0.46914291    -0.90500
O2909       O  0.71818284  0.71909953  0.03174412    -0.94100
C2910       C  0.67313544  0.67197806  0.50003465     1.00600
C2911       C  0.67395206  0.82987284  0.49819001     1.00400
C2912       C  0.67095564  0.75090957  0.07843265     1.00400
C2913       C  0.67379220  0.75313988  0.42034049     0.98200
H2914       H  0.70628850  0.79433789  0.04413204     0.28000
O2915       O  0.71884971  0.78151654  0.03149438    -1.02900
H2916       H  0.70721735  0.70670276  0.45617321     0.28000
O2917       O  0.71994751  0.71930540  0.46892695    -1.05400
O2918       O  0.80237851  0.83683363  0.50239135    -0.82600
O2919       O  0.80085661  0.66291508  0.50002660    -0.82200
O2920       O  0.75131475  0.80090758  0.08739261    -0.80600
O2921       O  0.75217916  0.80078759  0.41379152    -0.84000
O2922       O  0.74994030  0.69895971  0.41491435    -0.81800
O2923       O  0.74970567  0.70045874  0.08806695    -0.80500
O2924       O  0.83550431  0.74811920  0.05117475    -0.82000
O2925       O  0.83757263  0.74868609  0.45035792    -0.83900
O2926       O  0.79896386  0.74878235  0.08840723    -0.80600
O2927       O  0.80104872  0.74838623  0.41309730    -0.83300
O2928       O  0.74926959  0.83770818  0.05012797    -0.79100
O2929       O  0.74807011  0.66331070  0.05111839    -0.79100
O2930       O  0.75046744  0.66203135  0.45200805    -0.78700
O2931       O  0.75302804  0.83827329  0.45037419    -0.82200
O2932       O  0.83862677  0.79933337  0.50189702    -0.81700
O2933       O  0.83767776  0.69979904  0.49925509    -0.80000
Eu2934     Eu  0.75178149  0.81270588  0.50035272     2.39800
Eu2935     Eu  0.75078820  0.68862135  0.50077687     2.39600
Eu2936     Eu  0.74934546  0.75030978  0.06266507     2.38400
Eu2937     Eu  0.75122423  0.75025522  0.43823254     2.39900
Eu2938     Eu  0.81255962  0.74980943  0.50061251     2.39800
O2939       O  0.78175134  0.71904831  0.46940326    -0.94400
O2940       O  0.78070914  0.78116324  0.03191480    -0.93300
C2941       C  0.83032064  0.82764876  0.50266435     1.00800
C2942       C  0.82896641  0.67159829  0.49925132     0.99500
C2943       C  0.75043072  0.82901820  0.07825844     0.98900
C2944       C  0.75263374  0.82910716  0.42225565     1.00900
C2945       C  0.75005069  0.67076066  0.42387974     0.99800
C2946       C  0.74887536  0.67227087  0.07930195     0.98700
C2947       C  0.82693216  0.74784363  0.07946485     0.98700
C2948       C  0.82901842  0.74819004  0.42207911     1.01300
H2949       H  0.79259857  0.70587600  0.04419992     0.28700
O2950       O  0.78005634  0.71877628  0.03165263    -1.06600
H2951       H  0.79542854  0.79376351  0.45663780     0.30800
O2952       O  0.78246219  0.78128832  0.46922828    -1.09100
C2953       C  0.75949561  0.63300187  0.15569562    -0.14900
C2954       C  0.74885827  0.60337264  0.14927775     0.07300
C2955       C  0.73823632  0.59655679  0.11970492    -0.14900
C2956       C  0.73828670  0.61893861  0.09694926    -0.14900
C2957       C  0.74893065  0.64856986  0.10333595     0.07300
C2958       C  0.75956550  0.65539184  0.13292281    -0.14900
H2959       H  0.76815184  0.63877158  0.17819471     0.11200
H2960       H  0.72968480  0.57395481  0.11418480     0.11200
H2961       H  0.72972194  0.61311549  0.07442983     0.11200
H2962       H  0.76823567  0.67795834  0.13840106     0.11200
C2963       C  0.73404637  0.90328426  0.11902209    -0.14900
C2964       C  0.75117215  0.89981774  0.14589723     0.07300
C2965       C  0.76840200  0.87308380  0.15022888    -0.14900
C2966       C  0.76814057  0.84991924  0.12820764    -0.14900
C2967       C  0.75068374  0.85322157  0.10156162     0.07300
C2968       C  0.73377916  0.88011695  0.09701102    -0.14900
H2969       H  0.72035623  0.92358166  0.11538639     0.11200
H2970       H  0.78210912  0.87016637  0.17063349     0.11200
H2971       H  0.78175429  0.82956787  0.13184084     0.11200
H2972       H  0.71999381  0.88298310  0.07664794     0.11200
C2973       C  0.75400637  0.90578491  0.38183974    -0.14900
C2974       C  0.74992929  0.89710910  0.35106461     0.07300
C2975       C  0.74703205  0.86590260  0.34392275    -0.14900
C2976       C  0.74815041  0.84388958  0.36705147    -0.14900
C2977       C  0.75221509  0.85256542  0.39782598     0.07300
C2978       C  0.75515278  0.88378859  0.40494592    -0.14900
H2979       H  0.75647748  0.92963593  0.38817626     0.11200
H2980       H  0.74379400  0.85844594  0.32049112     0.11200
H2981       H  0.74559956  0.82003732  0.36076183     0.11200
H2982       H  0.75833197  0.89129363  0.42837090     0.11200
C2983       C  0.74451608  0.63211083  0.34685950    -0.14900
C2984       C  0.75186874  0.60167572  0.35409185     0.07300
C2985       C  0.75813398  0.59394115  0.38470695    -0.14900
C2986       C  0.75711058  0.61626964  0.40756092    -0.14900
C2987       C  0.74996965  0.64676916  0.40016584     0.07300
C2988       C  0.74346696  0.65437412  0.36966012    -0.14900
H2989       H  0.73925186  0.63874418  0.32356494     0.11200
H2990       H  0.76397130  0.57068579  0.39099948     0.11200
H2991       H  0.76232389  0.60971253  0.43089566     0.11200
H2992       H  0.73754726  0.67759371  0.36332164     0.11200
C2993       C  0.90555597  0.61712924  0.25466450    -0.14900
C2994       C  0.89795264  0.64831233  0.25577445     0.07300
C2995       C  0.86708197  0.65675450  0.25697630    -0.14900
C2996       C  0.84434367  0.63449565  0.25616098    -0.14900
C2997       C  0.85200060  0.60332905  0.25425195     0.07300
C2998       C  0.88285359  0.59490523  0.25384753    -0.14900
H2999       H  0.92907256  0.60982490  0.25389431     0.11200
H3000       H  0.86040156  0.68059745  0.25810648     0.11200
H3001       H  0.82080643  0.64175595  0.25678978     0.11200
H3002       H  0.88958432  0.57108538  0.25259184     0.11200
C3003       C  0.90414691  0.88245362  0.25119175    -0.14900
C3004       C  0.89642401  0.85123306  0.25183142     0.07300
C3005       C  0.86546384  0.84305096  0.25223231    -0.14900
C3006       C  0.84284138  0.86554564  0.25140163    -0.14900
C3007       C  0.85063408  0.89675964  0.25022679     0.07300
C3008       C  0.88156878  0.90490495  0.25038757    -0.14900
H3009       H  0.92770909  0.88964541  0.25103040     0.11200
H3010       H  0.85863956  0.81923536  0.25294105     0.11200
H3011       H  0.81925537  0.85842593  0.25158231     0.11200
H3012       H  0.88845947  0.92870206  0.24972968     0.11200
C3013       C  0.63337341  0.65592415  0.25301248    -0.14900
C3014       C  0.60264202  0.64787703  0.24905839     0.07300
C3015       C  0.59516227  0.61673648  0.24569964    -0.14900
C3016       C  0.61776893  0.59422597  0.24645713    -0.14900
C3017       C  0.64846761  0.60224967  0.25058966     0.07300
C3018       C  0.65597909  0.63340752  0.25381768    -0.14900
H3019       H  0.64000784  0.67964833  0.25576550     0.11200
H3020       H  0.57177998  0.60967603  0.24245059     0.11200
H3021       H  0.61113261  0.57050634  0.24367611     0.11200
H3022       H  0.67936094  0.64047729  0.25705817     0.11200
C3023       C  0.59383523  0.88342310  0.24964197    -0.14900
C3024       C  0.60129325  0.85214713  0.24940101     0.07300
C3025       C  0.63216720  0.84366928  0.24890890    -0.14900
C3026       C  0.65499186  0.86593546  0.24870749    -0.14900
C3027       C  0.64751437  0.89726098  0.24904944     0.07300
C3028       C  0.61665037  0.90567975  0.24945578    -0.14900
H3029       H  0.57033136  0.89079864  0.24999111     0.11200
H3030       H  0.63879803  0.81978685  0.24869753     0.11200
H3031       H  0.67849426  0.85854980  0.24837821     0.11200
H3032       H  0.61001531  0.92955498  0.24966751     0.11200
C3033       C  0.90429352  0.75013225  0.11757640    -0.14900
C3034       C  0.89691565  0.74540419  0.14853377     0.07300
C3035       C  0.86637681  0.73992966  0.15642388    -0.14900
C3036       C  0.84364297  0.74038193  0.13401642    -0.14900
C3037       C  0.85096388  0.74622618  0.10321336     0.07300
C3038       C  0.88161611  0.75057872  0.09522471    -0.14900
H3039       H  0.92757914  0.75415497  0.11059863     0.11200
H3040       H  0.85995557  0.73562152  0.17997052     0.11200
H3041       H  0.82032326  0.73633397  0.14087508     0.11200
H3042       H  0.88812364  0.75490163  0.07170500     0.11200
C3043       C  0.63094192  0.74337114  0.15496463    -0.14900
C3044       C  0.60042625  0.74877316  0.14697017     0.07300
C3045       C  0.59328400  0.75481996  0.11619874    -0.14900
C3046       C  0.61618689  0.75579398  0.09402353    -0.14900
C3047       C  0.64674868  0.75059989  0.10207780     0.07300
C3048       C  0.65382054  0.74436413  0.13281906    -0.14900
H3049       H  0.63723931  0.73836916  0.17840898     0.11200
H3050       H  0.57004209  0.75917778  0.10926341     0.11200
H3051       H  0.60991755  0.76074470  0.07056167     0.11200
H3052       H  0.67704351  0.73997463  0.13979166     0.11200
C3053       C  0.63416695  0.75526070  0.34279376    -0.14900
C3054       C  0.60334478  0.75293894  0.35120338     0.07300
C3055       C  0.59601218  0.75125219  0.38248037    -0.14900
C3056       C  0.61883164  0.75171172  0.40474815    -0.14900
C3057       C  0.64967380  0.75378953  0.39641588     0.07300
C3058       C  0.65704373  0.75572100  0.36511512    -0.14900
H3059       H  0.64069323  0.75666998  0.31892567     0.11200
H3060       H  0.57258322  0.74934222  0.38985952     0.11200
H3061       H  0.61221207  0.75011087  0.42857457     0.11200
H3062       H  0.68050893  0.75741302  0.35780142     0.11200
C3063       C  0.90635247  0.74402986  0.38392642    -0.14900
C3064       C  0.89875243  0.74773631  0.35289349     0.07300
C3065       C  0.86801987  0.75145326  0.34482523    -0.14900
C3066       C  0.84542138  0.75143193  0.36723666    -0.14900
C3067       C  0.85299142  0.74771953  0.39827832     0.07300
C3068       C  0.88372835  0.74401884  0.40636409    -0.14900
H3069       H  0.92979120  0.74111237  0.39094074     0.11200
H3070       H  0.86134609  0.75460317  0.32116423     0.11200
H3071       H  0.82201950  0.75458311  0.36019821     0.11200
H3072       H  0.89037016  0.74108313  0.43006030     0.11200
C3073       C  0.86745869  0.90509296  0.00604503    -0.14900
C3074       C  0.89805432  0.89738374  0.00082471     0.07300
C3075       C  0.90581263  0.86633744  0.99722028    -0.14900
C3076       C  0.88346004  0.84360596  0.99857046    -0.14900
C3077       C  0.85278593  0.85138858  0.00338814     0.07300
C3078       C  0.84513116  0.88238659  0.00739875    -0.14900
H3079       H  0.86069682  0.92872398  0.00924080     0.11200
H3080       H  0.92915324  0.85955794  0.99315935     0.11200
H3081       H  0.89019944  0.81996880  0.99536454     0.11200
H3082       H  0.82179730  0.88920605  0.01141642     0.11200
C3083       C  0.86707054  0.59483981  0.99455743    -0.14900
C3084       C  0.89787073  0.60326634  0.99682537     0.07300
C3085       C  0.90526468  0.63450301  0.99905643    -0.14900
C3086       C  0.88240311  0.65670322  0.99929087    -0.14900
C3087       C  0.85157430  0.64822580  0.99733262     0.07300
C3088       C  0.84420999  0.61703696  0.99482259    -0.14900
H3089       H  0.86051500  0.57100710  0.99273344     0.11200
H3090       H  0.92871073  0.64185086  0.00091901     0.11200
H3091       H  0.88895481  0.68052464  0.00131440     0.11200
H3092       H  0.82074931  0.60969603  0.99315776     0.11200
C3093       C  0.63290797  0.90699967  0.00075009    -0.14900
C3094       C  0.60200766  0.89860481  0.00198459     0.07300
C3095       C  0.59465560  0.86729927  0.00342460    -0.14900
C3096       C  0.61749911  0.84501646  0.00290073    -0.14900
C3097       C  0.64835106  0.85337887  0.00096577     0.07300
C3098       C  0.65577347  0.88469485  0.00021793    -0.14900
H3099       H  0.63951133  0.93087092  0.99989717     0.11200
H3100       H  0.57118801  0.85991618  0.00474415     0.11200
H3101       H  0.61087329  0.82115652  0.00392041     0.11200
H3102       H  0.67926125  0.89204208  0.99904403     0.11200
C3103       C  0.59355075  0.63407930  0.99594570    -0.14900
C3104       C  0.60085673  0.60301673  0.00005409     0.07300
C3105       C  0.63158531  0.59463103  0.00293168    -0.14900
C3106       C  0.65445517  0.61678343  0.00204548    -0.14900
C3107       C  0.64715645  0.64792586  0.99844520     0.07300
C3108       C  0.61643984  0.65625233  0.99506980    -0.14900
H3109       H  0.57014481  0.64132148  0.99332758     0.11200
H3110       H  0.63806110  0.57090780  0.00602427     0.11200
H3111       H  0.67784890  0.60948536  0.00459615     0.11200
H3112       H  0.60999917  0.67997399  0.99191495     0.11200
C3113       C  0.86836792  0.50676588  0.40674232    -0.14900
C3114       C  0.89889992  0.50098959  0.39909002     0.07300
C3115       C  0.90649428  0.49613098  0.36821375    -0.14900
C3116       C  0.88411153  0.49675013  0.34553502    -0.14900
C3117       C  0.85351888  0.50215967  0.35314481     0.07300
C3118       C  0.84594765  0.50737351  0.38403061    -0.14900
H3119       H  0.86175914  0.51094793  0.43026778     0.11200
H3120       H  0.92976892  0.49161293  0.36149835     0.11200
H3121       H  0.89079063  0.49261422  0.32202780     0.11200
H3122       H  0.82266794  0.51193146  0.39070205     0.11200
C3123       C  0.59711244  0.48871141  0.36745809    -0.14900
C3124       C  0.60379705  0.49698673  0.39784724     0.07300
C3125       C  0.63407636  0.50402953  0.40556142    -0.14900
C3126       C  0.65695303  0.50348426  0.38334501    -0.14900
C3127       C  0.65011994  0.49594413  0.35282305     0.07300
C3128       C  0.62002040  0.48811939  0.34523091    -0.14900
H3129       H  0.57415913  0.48264589  0.36083167     0.11200
H3130       H  0.64007837  0.51045071  0.42874442     0.11200
H3131       H  0.67988877  0.50958841  0.39000630     0.11200
H3132       H  0.61407625  0.48170068  0.32202902     0.11200
C3133       C  0.63291819  0.49692360  0.09397028    -0.14900
C3134       C  0.60210585  0.49926732  0.10248120     0.07300
C3135       C  0.59495659  0.50154359  0.13376326    -0.14900
C3136       C  0.61797858  0.50187361  0.15590024    -0.14900
C3137       C  0.64880932  0.49986098  0.14742037     0.07300
C3138       C  0.65595399  0.49728174  0.11611654    -0.14900
H3139       H  0.63934706  0.49492003  0.07011552     0.11200
H3140       H  0.57154089  0.50333230  0.14121590     0.11200
H3141       H  0.61153195  0.50387428  0.17974587     0.11200
H3142       H  0.67936997  0.49550015  0.10866343     0.11200
C3143       C  0.90579945  0.50620162  0.13291288    -0.14900
C3144       C  0.89806583  0.50082628  0.10213374     0.07300
C3145       C  0.86743256  0.49569026  0.09454572    -0.14900
C3146       C  0.84502253  0.49610472  0.11718326    -0.14900
C3147       C  0.85272646  0.50167334  0.14793116     0.07300
C3148       C  0.88339097  0.50663958  0.15554434    -0.14900
H3149       H  0.92917092  0.51032576  0.13954951     0.11200
H3150       H  0.86073291  0.49119022  0.07110572     0.11200
H3151       H  0.82166746  0.49185010  0.11057123     0.11200
H3152       H  0.89012375  0.51102417  0.17899659     0.11200
C3153       C  0.00621741  0.63237171  0.40600794    -0.14900
C3154       C  0.50003366  0.60185945  0.39817275     0.07300
C3155       C  0.49345178  0.59458722  0.36755883    -0.14900
C3156       C  0.49425770  0.61723576  0.34507092    -0.14900
C3157       C  0.50153896  0.64764763  0.35274094     0.07300
C3158       C  0.00707847  0.65503624  0.38355774    -0.14900
H3159       H  0.01110221  0.63874334  0.42947128     0.11200
H3160       H  0.48757724  0.57141818  0.36095444     0.11200
H3161       H  0.48885416  0.61093953  0.32170414     0.11200
H3162       H  0.01245270  0.67828343  0.39030850     0.11200
C3163       C  0.48755064  0.84639994  0.38168493    -0.14900
C3164       C  0.49861626  0.85275825  0.35217803     0.07300
C3165       C  0.00990445  0.88223229  0.34580171    -0.14900
C3166       C  0.01073031  0.90462758  0.36863825    -0.14900
C3167       C  0.50018692  0.89802953  0.39832863     0.07300
C3168       C  0.48835723  0.86880654  0.40454285    -0.14900
H3169       H  0.47817062  0.82411287  0.38708238     0.11200
H3170       H  0.01847953  0.88783142  0.32323699     0.11200
H3171       H  0.01980622  0.92700737  0.36309516     0.11200
H3172       H  0.47947331  0.86334308  0.42701654     0.11200
C3173       C  0.98918658  0.90648054  0.13344454    -0.14900
C3174       C  0.49509684  0.89898115  0.10249097     0.07300
C3175       C  0.50068565  0.86826792  0.09461132    -0.14900
C3176       C  0.50151145  0.84559349  0.11709104    -0.14900
C3177       C  0.49663265  0.85303832  0.14800414     0.07300
C3178       C  0.99012429  0.88380867  0.15600937    -0.14900
H3179       H  0.98412257  0.92980978  0.14015764     0.11200
H3180       H  0.50497173  0.86172651  0.07107859     0.11200
H3181       H  0.50630893  0.82225174  0.11023547     0.11200
H3182       H  0.98563309  0.89026408  0.17952611     0.11200
C3183       C  0.49799829  0.63373954  0.09453667    -0.14900
C3184       C  0.50219209  0.60279227  0.10213546     0.07300
C3185       C  0.00756196  0.59495638  0.13277268    -0.14900
C3186       C  0.00765365  0.61734852  0.15554366    -0.14900
C3187       C  0.50231063  0.64801499  0.14814703     0.07300
C3188       C  0.49805497  0.65610707  0.11729599    -0.14900
H3189       H  0.49418195  0.64069531  0.07104933     0.11200
H3190       H  0.01157976  0.57138071  0.13930360     0.11200
H3191       H  0.01172682  0.61045771  0.17900775     0.11200
H3192       H  0.49427617  0.67970249  0.11069797     0.11200
O3193       O  0.50334822  0.55104251  0.58800176    -0.81700
O3194       O  0.49975467  0.55054309  0.91271204    -0.83200
O3195       O  0.55231402  0.58655711  0.49971517    -0.80300
O3196       O  0.95174344  0.58792662  0.49961021    -0.78600
O3197       O  0.91511380  0.55082632  0.49938993    -0.80400
O3198       O  0.58880595  0.54927604  0.50003405    -0.81400
O3199       O  0.50022719  0.58762397  0.94971701    -0.82700
O3200       O  0.50297343  0.58761726  0.55044109    -0.83000
Eu3201     Eu  0.50193729  0.56222730  0.50031640     2.42000
O3202       O  0.96880875  0.53169561  0.96841015    -0.90500
O3203       O  0.53244954  0.53093731  0.53132672    -0.94100
C3204       C  0.50346434  0.57910449  0.57872789     1.00600
C3205       C  0.50004279  0.57875766  0.92153489     1.00400
C3206       C  0.58030309  0.57759794  0.49982896     1.00400
C3207       C  0.92368592  0.57905329  0.49920814     0.98200
H3208       H  0.54338358  0.54423053  0.95635028     0.28000
O3209       O  0.53059501  0.53158019  0.96895659    -1.02900
H3210       H  0.95810084  0.54519709  0.54445946     0.28000
O3211       O  0.97054573  0.53216720  0.53190368    -1.05400
O3212       O  0.50120080  0.94915871  0.91326837    -0.82600
O3213       O  0.50136044  0.95181436  0.58876737    -0.82200
O3214       O  0.58723068  0.49926319  0.95111943    -0.80600
O3215       O  0.91284520  0.50049060  0.94946271    -0.84000
O3216       O  0.91463174  0.50258841  0.55063368    -0.81800
O3217       O  0.58772627  0.49864204  0.54997511    -0.80500
O3218       O  0.55192326  0.91411086  0.50046568    -0.82000
O3219       O  0.95261373  0.91177552  0.50345552    -0.83900
O3220       O  0.58808488  0.95171066  0.50113251    -0.80600
O3221       O  0.91554118  0.94844460  0.50241286    -0.83300
O3222       O  0.55071585  0.50025855  0.91387658    -0.79100
O3223       O  0.55120919  0.49969669  0.58725209    -0.79100
O3224       O  0.95092793  0.50239609  0.58805655    -0.78700
O3225       O  0.94953997  0.49977738  0.91238356    -0.82200
O3226       O  0.49929669  0.91265032  0.95079583    -0.81700
O3227       O  0.50237794  0.91461976  0.55188031    -0.80000
Eu3228     Eu  0.49992464  0.50034718  0.93779478     2.39800
Eu3229     Eu  0.50104714  0.50079745  0.56281120     2.39600
Eu3230     Eu  0.56270759  0.49943214  0.50000975     2.38400
Eu3231     Eu  0.93997897  0.50080116  0.50083761     2.39900
Eu3232     Eu  0.50151793  0.93855740  0.50118388     2.39800
O3233       O  0.97009705  0.96931509  0.53200765    -0.94400
O3234       O  0.53054257  0.96920109  0.96888758    -0.93300
C3235       C  0.50052644  0.92110457  0.92257009     1.00800
C3236       C  0.50211488  0.92359683  0.58004171     0.99500
C3237       C  0.57872772  0.49955371  0.92285964     0.98900
C3238       C  0.92143796  0.50023669  0.92120315     1.00900
C3239       C  0.92294454  0.50292491  0.57893863     0.99800
C3240       C  0.57914997  0.49892098  0.57821646     0.98700
C3241       C  0.57985880  0.92328601  0.50052317     0.98700
C3242       C  0.92450964  0.92032179  0.50343551     1.01300
H3243       H  0.54437742  0.95812847  0.54529981     0.28700
O3244       O  0.53150931  0.97041653  0.53247289    -1.06600
H3245       H  0.95624708  0.95609115  0.95565203     0.30800
O3246       O  0.96869048  0.96898523  0.96838039    -1.09100
O3247       O  0.50007616  0.70144926  0.66218280    -0.81700
O3248       O  0.50058211  0.70009648  0.83710970    -0.83200
O3249       O  0.55097808  0.66414671  0.75058001    -0.80300
O3250       O  0.95038820  0.66275020  0.75004306    -0.78600
O3251       O  0.91356187  0.69967085  0.75086046    -0.80400
O3252       O  0.58751363  0.70140067  0.74975700    -0.81400
O3253       O  0.49945632  0.66329643  0.79987194    -0.82700
O3254       O  0.50194068  0.66423530  0.69908870    -0.83000
Eu3255     Eu  0.50040725  0.68849083  0.74973343     2.39200
O3256       O  0.96921059  0.71876892  0.78115504    -0.90500
O3257       O  0.53094870  0.72004808  0.71886928    -0.94100
C3258       C  0.50135690  0.67326249  0.67095963     1.00600
C3259       C  0.49994408  0.67201084  0.82812036     1.00400
C3260       C  0.57900037  0.67311445  0.75026345     1.00400
C3261       C  0.92228402  0.67144920  0.75062403     0.98200
H3262       H  0.54395976  0.70690381  0.79354280     0.28000
O3263       O  0.53120076  0.71954634  0.78090827    -1.02900
H3264       H  0.95675811  0.70675393  0.70605037     0.28000
O3265       O  0.96929237  0.71951143  0.71883712    -1.05400
O3266       O  0.50036205  0.79891349  0.83899154    -0.82600
O3267       O  0.49959396  0.80184477  0.66400489    -0.82200
O3268       O  0.58725116  0.75178875  0.79968426    -0.80600
O3269       O  0.91259615  0.74811181  0.80023321    -0.84000
O3270       O  0.91319918  0.75007849  0.70053457    -0.81800
O3271       O  0.58744341  0.74951997  0.70001666    -0.80500
O3272       O  0.54871602  0.83908908  0.75193197    -0.82000
O3273       O  0.94912520  0.83721216  0.75151085    -0.83900
O3274       O  0.58540768  0.80205392  0.75049544    -0.80600
O3275       O  0.91263969  0.79993160  0.75095285    -0.83300
O3276       O  0.55054669  0.75069219  0.83672745    -0.79100
O3277       O  0.55053580  0.74955896  0.66318297    -0.79100
O3278       O  0.94987923  0.75107568  0.66344739    -0.78700
O3279       O  0.94936863  0.74844418  0.83719189    -0.82200
O3280       O  0.50153116  0.83628878  0.80230244    -0.81700
O3281       O  0.49937995  0.83850190  0.70145366    -0.80000
Eu3282     Eu  0.49999395  0.74995814  0.81228552     2.39800
Eu3283     Eu  0.50003228  0.75122959  0.68819002     2.39600
Eu3284     Eu  0.56166136  0.75118719  0.74990702     2.38400
Eu3285     Eu  0.93832652  0.75002772  0.75048580     2.39900
Eu3286     Eu  0.49945766  0.81265863  0.75123023     2.39800
O3287       O  0.96898316  0.78160090  0.71968889    -0.94400
O3288       O  0.53066857  0.78147826  0.78158439    -0.93300
C3289       C  0.50141028  0.82709576  0.83040270     1.00800
C3290       C  0.49960226  0.82995990  0.67315997     0.99500
C3291       C  0.57860271  0.75150486  0.82790965     0.98900
C3292       C  0.92126254  0.74773098  0.82845632     1.00900
C3293       C  0.92185458  0.75049469  0.67232207     0.99800
C3294       C  0.57868441  0.74879636  0.67180296     0.98700
C3295       C  0.57673381  0.83028452  0.75125361     0.98700
C3296       C  0.92112759  0.82823472  0.75129589     1.01300
H3297       H  0.54332334  0.79543066  0.70658596     0.28700
O3298       O  0.53076575  0.78259293  0.71921231    -1.06600
H3299       H  0.95585216  0.79377608  0.79501633     0.30800
O3300       O  0.96852129  0.78137512  0.78206593    -1.09100
O3301       O  0.83629033  0.00038377  0.70006816    -0.81700
O3302       O  0.66249555  0.00281133  0.70164664    -0.83200
O3303       O  0.74979108  0.95104391  0.66252283    -0.80300
O3304       O  0.74760659  0.54978324  0.66206782    -0.78600
O3305       O  0.74928238  0.58676502  0.69908703    -0.80400
O3306       O  0.75113105  0.91407730  0.69968503    -0.81400
O3307       O  0.69883194  0.00145895  0.66427883    -0.82700
O3308       O  0.79958180  0.00083371  0.66302440    -0.83000
Eu3309     Eu  0.74942348  0.00063236  0.68827968     2.39200
O3310       O  0.71876455  0.53068398  0.71868388    -0.90500
O3311       O  0.78013444  0.96928691  0.71920461    -0.94100
C3312       C  0.82764355  0.00054755  0.67184448     1.00600
C3313       C  0.67090670  0.00266253  0.67340496     1.00400
C3314       C  0.75072682  0.92293652  0.67147124     1.00400
C3315       C  0.74808279  0.57801108  0.67092653     0.98200
H3316       H  0.70595327  0.95660827  0.70646774     0.28000
O3317       O  0.71869093  0.96918673  0.71925622    -1.02900
H3318       H  0.79350935  0.54389664  0.70531432     0.28000
O3319       O  0.78097001  0.53126360  0.71817286    -1.05400
O3320       O  0.66324882  0.99945932  0.80064983    -0.82600
O3321       O  0.83614700  0.99994760  0.79991707    -0.82200
O3322       O  0.69935816  0.91314042  0.74954416    -0.80600
O3323       O  0.70018317  0.58763068  0.74803324    -0.84000
O3324       O  0.80025169  0.58690731  0.74930765    -0.81800
O3325       O  0.79936632  0.91286476  0.75108084    -0.80500
O3326       O  0.74930148  0.95094246  0.83808938    -0.82000
O3327       O  0.74801824  0.55086089  0.83623693    -0.83900
O3328       O  0.74742092  0.91351390  0.80136914    -0.80600
O3329       O  0.74962604  0.58778665  0.79920664    -0.83300
O3330       O  0.66308189  0.95058964  0.75013533    -0.79100
O3331       O  0.83596659  0.95003398  0.74975100    -0.79100
O3332       O  0.83694597  0.54983825  0.74926388    -0.78700
O3333       O  0.66332154  0.55069766  0.74988453    -0.82200
O3334       O  0.69977646  0.00087045  0.83784973    -0.81700
O3335       O  0.79989621  0.99961385  0.83742902    -0.80000
Eu3336     Eu  0.68843185  0.00032609  0.75085282     2.39800
Eu3337     Eu  0.81096826  0.00051678  0.74997227     2.39600
Eu3338     Eu  0.74946472  0.93818424  0.75054389     2.38400
Eu3339     Eu  0.74986570  0.56208440  0.74922129     2.39900
Eu3340     Eu  0.74986825  0.00076637  0.81249257     2.39800
O3341       O  0.78060067  0.53137144  0.78050467    -0.94400
O3342       O  0.71896364  0.96923430  0.78195223    -0.93300
C3343       C  0.67177261  0.00002932  0.82887244     1.00800
C3344       C  0.82780291  0.99952582  0.82822406     0.99500
C3345       C  0.67141796  0.92230583  0.74968052     0.98900
C3346       C  0.67212970  0.57896188  0.74895697     1.00900
C3347       C  0.82831931  0.57807850  0.74940721     0.99800
C3348       C  0.82738291  0.92173155  0.75050910     0.98700
C3349       C  0.74808013  0.92269982  0.82952898     0.98700
C3350       C  0.74858971  0.57900978  0.82741878     1.01300
H3351       H  0.79304708  0.95666135  0.79402516     0.28700
O3352       O  0.78044180  0.96941702  0.78134678    -1.06600
H3353       H  0.70590335  0.54427786  0.79305751     0.30800
O3354       O  0.71857964  0.53152812  0.78048903    -1.09100
O3355       O  0.69924124  0.66253867  0.99958971    -0.81700
O3356       O  0.70052561  0.83821640  0.99986429    -0.83200
O3357       O  0.66356708  0.74871048  0.54941012    -0.80300
O3358       O  0.66323404  0.75192155  0.94985790    -0.78600
O3359       O  0.70001971  0.75239003  0.91288715    -0.80400
O3360       O  0.70008452  0.74914546  0.58667211    -0.81400
O3361       O  0.66375260  0.80122334  0.00017142    -0.82700
O3362       O  0.66296015  0.70002195  0.99903416    -0.83000
Eu3363     Eu  0.68800443  0.75052961  0.00023290     2.39200
O3364       O  0.71908509  0.78155242  0.96946022    -0.90500
O3365       O  0.71984218  0.72016375  0.53096501    -0.94100
C3366       C  0.67131925  0.67164373  0.99897395     1.00600
C3367       C  0.67244228  0.82947902  0.00016405     1.00400
C3368       C  0.67210443  0.74810841  0.57771557     1.00400
C3369       C  0.67197711  0.75258823  0.92163195     0.98200
H3370       H  0.70715099  0.79483567  0.54362446     0.28000
O3371       O  0.71988455  0.78212166  0.53107129    -1.02900
H3372       H  0.70587775  0.70688134  0.95635112     0.28000
O3373       O  0.71862244  0.71933415  0.96920508    -1.05400
O3374       O  0.80077391  0.83646186  0.00294783    -0.82600
O3375       O  0.79935366  0.66291922  0.99923207    -0.82200
O3376       O  0.75111645  0.80083638  0.58793289    -0.80600
O3377       O  0.74964304  0.80161151  0.91442147    -0.84000
O3378       O  0.74882262  0.69985231  0.91357794    -0.81800
O3379       O  0.74814971  0.70112847  0.58800339    -0.80500
O3380       O  0.83713937  0.74914489  0.55092190    -0.82000
O3381       O  0.83590096  0.74842430  0.95017719    -0.83900
O3382       O  0.80029145  0.75000437  0.58782874    -0.80600
O3383       O  0.79937895  0.74731004  0.91295886    -0.83300
O3384       O  0.75062779  0.83770815  0.55071510    -0.79100
O3385       O  0.74835270  0.66412671  0.55096549    -0.79100
O3386       O  0.74829757  0.66252824  0.95032599    -0.78700
O3387       O  0.75146549  0.83866944  0.95147228    -0.82200
O3388       O  0.83728125  0.79925587  0.00226672    -0.81700
O3389       O  0.83598363  0.70004371  0.99830856    -0.80000
Eu3390     Eu  0.75025491  0.81223204  0.00058477     2.39800
Eu3391     Eu  0.74902053  0.68791701  0.00051533     2.39600
Eu3392     Eu  0.75048786  0.75087285  0.56235002     2.38400
Eu3393     Eu  0.74971344  0.75044387  0.93837631     2.39900
Eu3394     Eu  0.81100761  0.74983154  0.00061030     2.39800
O3395       O  0.77988673  0.71907333  0.96968397    -0.94400
O3396       O  0.78215509  0.78147976  0.53163660    -0.93300
C3397       C  0.82877903  0.82751858  0.00304818     1.00800
C3398       C  0.82738622  0.67183772  0.99826868     0.99500
C3399       C  0.75083206  0.82897243  0.57894318     0.98900
C3400       C  0.75041605  0.82984367  0.92334311     1.00900
C3401       C  0.74840686  0.67154752  0.92216712     0.99800
C3402       C  0.74758179  0.67295387  0.57911784     0.98700
C3403       C  0.82834797  0.74946019  0.57910909     0.98700
C3404       C  0.82736511  0.74715358  0.92189181     1.01300
H3405       H  0.79409951  0.70618650  0.54495077     0.28700
O3406       O  0.78175128  0.71908628  0.53216719    -1.06600
H3407       H  0.79407723  0.79400106  0.95651122     0.30800
O3408       O  0.78115970  0.78145549  0.96910150    -1.09100
C3409       C  0.73911017  0.59558694  0.61703143    -0.14900
C3410       C  0.74739268  0.60227450  0.64736396     0.07300
C3411       C  0.75498841  0.63258193  0.65518907    -0.14900
C3412       C  0.75448864  0.65566340  0.63316323    -0.14900
C3413       C  0.74654300  0.64891272  0.60278350     0.07300
C3414       C  0.73864558  0.61869780  0.59496917    -0.14900
H3415       H  0.73289275  0.57253346  0.61034988     0.11200
H3416       H  0.76169735  0.63846941  0.67831860     0.11200
H3417       H  0.76091372  0.67866724  0.63982938     0.11200
H3418       H  0.73216311  0.61286238  0.57175833     0.11200
C3419       C  0.73722147  0.90432914  0.61917789    -0.14900
C3420       C  0.75107107  0.89908424  0.64767368     0.07300
C3421       C  0.76485711  0.87068236  0.65342923    -0.14900
C3422       C  0.76464373  0.84778936  0.63112237    -0.14900
C3423       C  0.75074900  0.85298755  0.60264524     0.07300
C3424       C  0.73703738  0.88144480  0.59685594    -0.14900
H3425       H  0.72614029  0.92594546  0.61433221     0.11200
H3426       H  0.77600679  0.86626493  0.67510236     0.11200
H3427       H  0.77568779  0.82616023  0.63598276     0.11200
H3428       H  0.72588448  0.88586615  0.57518576     0.11200
C3429       C  0.76292611  0.90478397  0.88177559    -0.14900
C3430       C  0.74792253  0.89926674  0.85387492     0.07300
C3431       C  0.73321929  0.87109807  0.84935650    -0.14900
C3432       C  0.73406064  0.84858021  0.87203685    -0.14900
C3433       C  0.74959859  0.85381783  0.89962137     0.07300
C3434       C  0.76377450  0.88224638  0.90446646    -0.14900
H3435       H  0.77453407  0.92629917  0.88578520     0.11200
H3436       H  0.72098246  0.86653876  0.82831502     0.11200
H3437       H  0.72234787  0.82711080  0.86810083     0.11200
H3438       H  0.77590934  0.88684476  0.92556553     0.11200
C3439       C  0.74032760  0.59508616  0.88180357    -0.14900
C3440       C  0.74807608  0.60276478  0.85151709     0.07300
C3441       C  0.75571441  0.63321003  0.84465768    -0.14900
C3442       C  0.75573418  0.65548498  0.86760180    -0.14900
C3443       C  0.74811013  0.64783055  0.89791684     0.07300
C3444       C  0.74036940  0.61736403  0.90476044    -0.14900
H3445       H  0.73412418  0.57184964  0.88780778     0.11200
H3446       H  0.76203638  0.63980267  0.82161716     0.11200
H3447       H  0.76206431  0.67868663  0.86161413     0.11200
H3448       H  0.73418146  0.61074062  0.92782915     0.11200
C3449       C  0.90581741  0.61635449  0.75368520    -0.14900
C3450       C  0.89825861  0.64750318  0.75081335     0.07300
C3451       C  0.86741391  0.65558916  0.74784462    -0.14900
C3452       C  0.84477688  0.63311975  0.74735003    -0.14900
C3453       C  0.85235517  0.60196104  0.74989518     0.07300
C3454       C  0.88316435  0.59387067  0.75320260    -0.14900
H3455       H  0.92927305  0.60928004  0.75628881     0.11200
H3456       H  0.86068384  0.67933614  0.74562504     0.11200
H3457       H  0.82132153  0.64022402  0.74481742     0.11200
H3458       H  0.88985856  0.57011860  0.75548978     0.11200
C3459       C  0.90485741  0.88333156  0.75103396    -0.14900
C3460       C  0.89708831  0.85209829  0.75142242     0.07300
C3461       C  0.86613701  0.84396848  0.75174166    -0.14900
C3462       C  0.84356054  0.86651024  0.75149027    -0.14900
C3463       C  0.85134739  0.89775937  0.75090238     0.07300
C3464       C  0.88229682  0.90585792  0.75076965    -0.14900
H3465       H  0.92843306  0.89047735  0.75082017     0.11200
H3466       H  0.85927203  0.82015624  0.75211501     0.11200
H3467       H  0.81997925  0.85938105  0.75168532     0.11200
H3468       H  0.88918677  0.92966111  0.75041082     0.11200
C3469       C  0.63356136  0.65677877  0.74441606    -0.14900
C3470       C  0.60303507  0.64923572  0.75044405     0.07300
C3471       C  0.59559670  0.61849031  0.75631978    -0.14900
C3472       C  0.61797158  0.59577663  0.75576515    -0.14900
C3473       C  0.64841582  0.60319142  0.74937850     0.07300
C3474       C  0.65597358  0.63402885  0.74385886    -0.14900
H3475       H  0.64012961  0.68022250  0.73976964     0.11200
H3476       H  0.57240406  0.61188909  0.76138794     0.11200
H3477       H  0.61136365  0.57236351  0.76048607     0.11200
H3478       H  0.67919284  0.64061246  0.73888212     0.11200
C3479       C  0.59361252  0.88518635  0.75449686    -0.14900
C3480       C  0.60078803  0.85403688  0.75082646     0.07300
C3481       C  0.63133250  0.84566010  0.74620304    -0.14900
C3482       C  0.65418737  0.86779760  0.74548026    -0.14900
C3483       C  0.64709696  0.89887918  0.74948602     0.07300
C3484       C  0.61650740  0.90735915  0.75377531    -0.14900
H3485       H  0.57033972  0.89246343  0.75806020     0.11200
H3486       H  0.63768264  0.82191553  0.74300527     0.11200
H3487       H  0.67743637  0.86049124  0.74182932     0.11200
H3488       H  0.61021354  0.93113201  0.75690297     0.11200
C3489       C  0.90569263  0.74996647  0.61730951    -0.14900
C3490       C  0.89789792  0.75008593  0.64850488     0.07300
C3491       C  0.86696350  0.74966637  0.65671107    -0.14900
C3492       C  0.84438413  0.74928964  0.63423805    -0.14900
C3493       C  0.85220294  0.74931803  0.60303331     0.07300
C3494       C  0.88313108  0.74957482  0.59485423    -0.14900
H3495       H  0.92926432  0.75021157  0.61015015     0.11200
H3496       H  0.86010904  0.74968755  0.68052840     0.11200
H3497       H  0.82080327  0.74906911  0.64137080     0.11200
H3498       H  0.89001065  0.74960706  0.57104518     0.11200
C3499       C  0.63350667  0.74404888  0.65549599    -0.14900
C3500       C  0.60257899  0.74699761  0.64766517     0.07300
C3501       C  0.59472717  0.74837996  0.61646619    -0.14900
C3502       C  0.61718936  0.74804130  0.59377739    -0.14900
C3503       C  0.64814683  0.74638206  0.60166829     0.07300
C3504       C  0.65597710  0.74369822  0.63279450    -0.14900
H3505       H  0.64045218  0.74235473  0.67922533     0.11200
H3506       H  0.57117433  0.75024857  0.60949912     0.11200
H3507       H  0.61024466  0.74970117  0.57004582     0.11200
H3508       H  0.67953990  0.74176785  0.63973153     0.11200
C3509       C  0.63346097  0.75474276  0.84384551    -0.14900
C3510       C  0.60255911  0.75220310  0.85184292     0.07300
C3511       C  0.59475706  0.75047758  0.88300323    -0.14900
C3512       C  0.61723225  0.75102833  0.90558893    -0.14900
C3513       C  0.64813002  0.75320402  0.89761576     0.07300
C3514       C  0.65596309  0.75528727  0.86645822    -0.14900
H3515       H  0.64034039  0.75627680  0.82008608     0.11200
H3516       H  0.57122753  0.74853992  0.89003796     0.11200
H3517       H  0.61032483  0.74942707  0.92933425     0.11200
H3518       H  0.67951178  0.75716644  0.85946239     0.11200
C3519       C  0.90481163  0.74947370  0.88355442    -0.14900
C3520       C  0.89725090  0.74651394  0.85241494     0.07300
C3521       C  0.86647123  0.74258854  0.84441791    -0.14900
C3522       C  0.84384582  0.74222225  0.86694503    -0.14900
C3523       C  0.85140359  0.74589251  0.89803563     0.07300
C3524       C  0.88220731  0.74912347  0.90605714    -0.14900
H3525       H  0.92822985  0.75246192  0.89060312     0.11200
H3526       H  0.85977515  0.73994115  0.82069915     0.11200
H3527       H  0.82040147  0.73934525  0.85992155     0.11200
H3528       H  0.88891777  0.75188528  0.92975711     0.11200
C3529       C  0.86978562  0.90473363  0.50328132    -0.14900
C3530       C  0.90064938  0.89638344  0.50426446     0.07300
C3531       C  0.90823407  0.86513146  0.50547932    -0.14900
C3532       C  0.88543753  0.84279801  0.50522131    -0.14900
C3533       C  0.85456493  0.85122461  0.50375243     0.07300
C3534       C  0.84706479  0.88247257  0.50302510    -0.14900
H3535       H  0.86304452  0.92856606  0.50241216     0.11200
H3536       H  0.93176300  0.85787786  0.50638819     0.11200
H3537       H  0.89205632  0.81892651  0.50598615     0.11200
H3538       H  0.82357951  0.88983983  0.50197193     0.11200
C3539       C  0.86879551  0.59446917  0.50306173    -0.14900
C3540       C  0.89944990  0.60270752  0.49867320     0.07300
C3541       C  0.90657132  0.63368193  0.49386025    -0.14900
C3542       C  0.88367248  0.65589601  0.49373469    -0.14900
C3543       C  0.85305517  0.64773229  0.49851124     0.07300
C3544       C  0.84589608  0.61669247  0.50298064    -0.14900
H3545       H  0.86243841  0.57082068  0.50688801     0.11200
H3546       H  0.92986268  0.64081953  0.49015078     0.11200
H3547       H  0.89004431  0.67954386  0.48994126     0.11200
H3548       H  0.82261835  0.60955286  0.50676521     0.11200
C3549       C  0.63502558  0.90768728  0.49884094    -0.14900
C3550       C  0.60408273  0.89948305  0.49966324     0.07300
C3551       C  0.59646261  0.86819234  0.49934563    -0.14900
C3552       C  0.61909717  0.84575038  0.49843004    -0.14900
C3553       C  0.65003008  0.85391721  0.49792528     0.07300
C3554       C  0.65770984  0.88519601  0.49794379    -0.14900
H3555       H  0.64178987  0.93152885  0.49893639     0.11200
H3556       H  0.57292958  0.86092389  0.49988278     0.11200
H3557       H  0.61225269  0.82192956  0.49837417     0.11200
H3558       H  0.68127436  0.89237056  0.49748480     0.11200
C3559       C  0.59631464  0.63260919  0.50353165    -0.14900
C3560       C  0.60419989  0.60161484  0.49975816     0.07300
C3561       C  0.63503611  0.59395676  0.49602637    -0.14900
C3562       C  0.65738753  0.61675452  0.49611937    -0.14900
C3563       C  0.64944491  0.64776496  0.49991782     0.07300
C3564       C  0.61863115  0.65537161  0.50361871    -0.14900
H3565       H  0.57282607  0.63937414  0.50660731     0.11200
H3566       H  0.64194144  0.57035393  0.49292218     0.11200
H3567       H  0.68089722  0.61004159  0.49307050     0.11200
H3568       H  0.61168737  0.67895660  0.50675799     0.11200
C3569       C  0.86643172  0.50382767  0.90569283    -0.14900
C3570       C  0.89725279  0.50089923  0.89738857     0.07300
C3571       C  0.90467954  0.49925249  0.86612963    -0.14900
C3572       C  0.88194436  0.50031075  0.84379414    -0.14900
C3573       C  0.85114921  0.50289041  0.85210198     0.07300
C3574       C  0.84367703  0.50486740  0.88333863    -0.14900
H3575       H  0.85980632  0.50539146  0.92952384     0.11200
H3576       H  0.92811057  0.49707674  0.85883951     0.11200
H3577       H  0.88857933  0.49877803  0.81996302     0.11200
H3578       H  0.82022969  0.50705486  0.89059226     0.11200
C3579       C  0.59515102  0.50394373  0.86813667    -0.14900
C3580       C  0.60275516  0.49925373  0.89902475     0.07300
C3581       C  0.63345980  0.49447178  0.90677367    -0.14900
C3582       C  0.65594958  0.49441083  0.88409399    -0.14900
C3583       C  0.64824758  0.49911326  0.85315325     0.07300
C3584       C  0.61757705  0.50388222  0.84552133    -0.14900
H3585       H  0.57179905  0.50788532  0.86134214     0.11200
H3586       H  0.64014570  0.49067461  0.93033755     0.11200
H3587       H  0.67934379  0.49057123  0.89081485     0.11200
H3588       H  0.61082074  0.50779928  0.82200341     0.11200
C3589       C  0.63398417  0.49821673  0.59360618    -0.14900
C3590       C  0.60309545  0.49817488  0.60190938     0.07300
C3591       C  0.59531187  0.49740765  0.63308973    -0.14900
C3592       C  0.61787330  0.49686127  0.65547794    -0.14900
C3593       C  0.64875358  0.49714991  0.64723167     0.07300
C3594       C  0.65657334  0.49769388  0.61602183    -0.14900
H3595       H  0.64078673  0.49880914  0.56978033     0.11200
H3596       H  0.57175325  0.49730147  0.64029712     0.11200
H3597       H  0.61102889  0.49641397  0.67929225     0.11200
H3598       H  0.68014317  0.49797663  0.60885243     0.11200
C3599       C  0.90546768  0.50700349  0.63357610    -0.14900
C3600       C  0.89848924  0.50367121  0.60236826     0.07300
C3601       C  0.86780231  0.50037356  0.59372884    -0.14900
C3602       C  0.84480603  0.49937988  0.61582710    -0.14900
C3603       C  0.85190994  0.50173225  0.64713061     0.07300
C3604       C  0.88248137  0.50602522  0.65566137    -0.14900
H3605       H  0.92875001  0.51010659  0.64102772     0.11200
H3606       H  0.86150460  0.49802439  0.56986803     0.11200
H3607       H  0.82150886  0.49639985  0.60836733     0.11200
H3608       H  0.88875882  0.50855366  0.67950631     0.11200
C3609       C  0.00662245  0.63326859  0.90510011    -0.14900
C3610       C  0.50010280  0.60264587  0.89764195     0.07300
C3611       C  0.49344103  0.59509163  0.86708836    -0.14900
C3612       C  0.49330762  0.61763163  0.84450518    -0.14900
C3613       C  0.49989513  0.64818201  0.85199998     0.07300
C3614       C  0.00645484  0.65577948  0.88248814    -0.14900
H3615       H  0.01196158  0.63985667  0.92840396     0.11200
H3616       H  0.48807564  0.57176627  0.86061150     0.11200
H3617       H  0.48786669  0.61111429  0.82120629     0.11200
H3618       H  0.01169526  0.67913914  0.88896155     0.11200
C3619       C  0.48810730  0.84537003  0.88281909    -0.14900
C3620       C  0.50225552  0.85060451  0.85447893     0.07300
C3621       C  0.01638777  0.87869257  0.84908731    -0.14900
C3622       C  0.01598542  0.90159256  0.87134845    -0.14900
C3623       C  0.50133157  0.89679014  0.89928518     0.07300
C3624       C  0.48758737  0.86832928  0.90503799    -0.14900
H3625       H  0.47681397  0.82382570  0.88749551     0.11200
H3626       H  0.02777950  0.88306515  0.82753460     0.11200
H3627       H  0.02714915  0.92318810  0.86660522     0.11200
H3628       H  0.47597372  0.86403644  0.92648845     0.11200
C3629       C  0.00714769  0.90722057  0.63486758    -0.14900
C3630       C  0.50231122  0.89971774  0.60393323     0.07300
C3631       C  0.49632840  0.86910464  0.59610754    -0.14900
C3632       C  0.49531149  0.84655248  0.61861186    -0.14900
C3633       C  0.50038363  0.85405578  0.64946846     0.07300
C3634       C  0.00614293  0.88459440  0.65740417    -0.14900
H3635       H  0.01161956  0.93064664  0.64167150     0.11200
H3636       H  0.49195662  0.86255410  0.57259107     0.11200
H3637       H  0.49031079  0.82324001  0.61179595     0.11200
H3638       H  0.01000287  0.89112866  0.68101524     0.11200
C3639       C  0.48678221  0.63032302  0.59734329    -0.14900
C3640       C  0.50354366  0.60337562  0.60212313     0.07300
C3641       C  0.01977533  0.59967095  0.62941340    -0.14900
C3642       C  0.01923673  0.62255410  0.65176820    -0.14900
C3643       C  0.50231294  0.64946118  0.64713193     0.07300
C3644       C  0.48614779  0.65319954  0.61968645    -0.14900
H3645       H  0.47371597  0.63341959  0.57654204     0.11200
H3646       H  0.03322040  0.57925639  0.63330834     0.11200
H3647       H  0.03231585  0.61943599  0.67255858     0.11200
H3648       H  0.47263040  0.67356151  0.61576056     0.11200
loop_ 
_geom_bond_atom_site_label_1 
_geom_bond_atom_site_label_2 
_geom_bond_distance 
_geom_bond_site_symmetry_2 
_ccdc_geom_bond_type 
O1           C12   1.289       .  A
O1          Eu37   2.438       .  S
O2           C13   1.291       .  A
O2          Eu36   2.455   1_645  S
O3           C14   1.293       .  A
O3           Eu9   2.464   1_454  S
O4           C15   1.292       .  A
O4        Eu1833   2.460       .  S
O5           C15   1.291       .  A
O5          Eu39   2.453       .  S
O6           C14   1.292       .  A
O6          Eu38   2.456   1_554  S
O7           C13   1.289       .  A
O7         Eu465   2.441       .  S
O8           C12   1.291       .  A
O8           Eu9   2.454   1_554  S
Eu9        O1828   2.460       .  S
Eu9         O463   2.445       .  S
Eu9          O11   2.346   1_656  S
Eu9        O1843   2.347   1_556  S
Eu9        O2290   2.352       .  S
Eu9         O473   2.356   1_655  S
O10       Eu2289   2.351       .  S
O10        Eu495   2.351   1_545  S
O10       Eu1860   2.350       .  S
O11         Eu37   2.349   1_455  S
O11         Eu38   2.349   1_554  S
C12         C448   1.476       .  S
C13         C418   1.474       .  S
C14         C368   1.486       .  S
C15         C348   1.483       .  S
H16          O17   0.962       .  S
O17         Eu36   2.350   1_545  S
O17        Eu465   2.349   1_455  S
O17        Eu494   2.354       .  S
H18          O19   0.960       .  S
O19         Eu39   2.348   1_554  S
O19       Eu1833   2.348   1_554  S
O19       Eu1861   2.348       .  S
O20          C43   1.289       .  A
O20        Eu948   2.443       .  S
O21          C44   1.289       .  A
O21        Eu949   2.443   1_455  S
O22          C45   1.291       .  A
O22        Eu494   2.453       .  S
O23          C46   1.292       .  A
O23        Eu495   2.462       .  S
O24          C47   1.291       .  A
O24         Eu39   2.455   1_554  S
O25          C48   1.291       .  A
O25         Eu38   2.454   1_554  S
O26          C49   1.294       .  A
O26         Eu40   2.469   1_456  S
O27          C50   1.294       .  A
O27       Eu1864   2.469       .  S
O28          C49   1.290       .  A
O28        Eu950   2.448   1_556  S
O29          C50   1.290   1_556  A
O29        Eu951   2.451       .  S
O30          C45   1.293   1_565  A
O30         Eu36   2.462       .  S
O31          C48   1.293       .  A
O31         Eu37   2.467   1_455  S
O32          C47   1.293       .  A
O32       Eu1861   2.468       .  S
O33          C46   1.294       .  A
O33       Eu1860   2.471   1_565  S
O34          C43   1.292       .  A
O34        Eu496   2.462       .  S
O35          C44   1.292   1_655  A
O35         Eu40   2.456       .  S
Eu36        O932   2.445       .  S
Eu36       O1857   2.471   1_455  S
Eu36       O1834   2.350   1_465  S
Eu36       O2790   2.352   1_455  S
Eu36        O954   2.352       .  S
Eu37        O933   2.453   1_545  S
Eu37       O1856   2.466       .  S
Eu37       O1843   2.348       .  S
Eu37       O2777   2.346   1_545  S
Eu37        O964   2.353   1_645  S
Eu38        O478   2.463       .  S
Eu38        O940   2.462   1_546  S
Eu38        O473   2.351       .  S
Eu38        O964   2.359   1_546  S
Eu38       O1410   2.347   1_545  S
Eu39        O479   2.446       .  S
Eu39        O941   2.461   1_545  S
Eu39        O466   2.350       .  S
Eu39        O953   2.347   1_546  S
Eu39       O1422   2.350   1_545  S
Eu40       O1851   2.469       .  S
Eu40        O490   2.447   1_554  S
Eu40         O52   2.348   1_655  S
Eu40       O1865   2.347       .  S
Eu40       O2334   2.352   1_554  S
Eu40        O498   2.347   1_654  S
O41       Eu2773   2.353       .  S
O41        Eu951   2.352   1_554  S
O41       Eu1864   2.347       .  S
O42        Eu948   2.346       .  S
O42       Eu1406   2.344       .  S
O42        Eu496   2.351       .  S
C43         C431   1.476       .  S
C44         C438   1.475       .  S
C45         C388   1.485       .  S
C46         C378   1.489       .  S
C47         C408   1.486       .  S
C48         C398   1.485       .  S
C49         C358   1.483       .  S
C50         C338   1.485       .  S
H51          O52   0.961       .  S
O52        Eu949   2.346   1_455  S
O52        Eu950   2.345       .  S
H53          O54   0.962       .  S
O54       Eu2772   2.356       .  S
O54       Eu1407   2.353       .  S
O54       Eu2320   2.346       .  S
O55          C66   1.290       .  A
O55         Eu91   2.450   1_655  S
O56          C67   1.290       .  A
O56         Eu90   2.453   1_655  S
O57          C68   1.294       .  A
O57         Eu63   2.470       .  S
O58          C69   1.291       .  A
O58       Eu1887   2.455       .  S
O59          C69   1.294       .  A
O59         Eu93   2.473       .  S
O60          C68   1.288       .  A
O60         Eu92   2.437       .  S
O61          C67   1.291       .  A
O61         Eu63   2.459   1_655  S
O62          C66   1.290       .  A
O62         Eu63   2.446   1_655  S
Eu63       O1882   2.456   1_455  S
Eu63         O65   2.353       .  S
Eu63         O71   2.348       .  S
Eu63       O1897   2.357   1_455  S
Eu63       O1888   2.353   1_455  S
O64         Eu93   2.351       .  S
O64       Eu1887   2.354       .  S
O64       Eu1914   2.351       .  S
O65         Eu91   2.352       .  S
O65         Eu92   2.350       .  S
C66         C451   1.476       .  S
C67         C421   1.477       .  S
C68         C278   1.478       .  S
C69         C258   1.489       .  S
H70          O71   0.962       .  S
O71         Eu92   2.358       .  S
O71         Eu90   2.352       .  S
H72          O73   0.962       .  S
O73         Eu93   2.349       .  S
O73       Eu1887   2.357       .  S
O73       Eu1915   2.353       .  S
O74          C97   1.290       .  A
O74         Eu90   2.446       .  S
O75          C98   1.292       .  A
O75         Eu91   2.461       .  S
O76          C99   1.290       .  A
O76         Eu92   2.451       .  S
O77         C100   1.293       .  A
O77         Eu93   2.466       .  S
O78         C101   1.292       .  A
O78         Eu93   2.461       .  S
O79         C102   1.291       .  A
O79         Eu92   2.457       .  S
O80         C103   1.293       .  A
O80         Eu94   2.467       .  S
O81         C104   1.293       .  A
O81       Eu1918   2.464       .  S
O82         C103   1.291       .  A
O82         Eu92   2.457       .  S
O83         C104   1.291       .  A
O83         Eu93   2.451       .  S
O84          C99   1.293       .  A
O84         Eu90   2.462       .  S
O85         C102   1.292       .  A
O85         Eu91   2.460       .  S
O86         C101   1.292       .  A
O86       Eu1915   2.457       .  S
O87         C100   1.292       .  A
O87       Eu1914   2.463       .  S
O88          C97   1.291       .  A
O88         Eu94   2.451       .  S
O89          C98   1.290       .  A
O89         Eu94   2.448       .  S
Eu90       O1911   2.463   1_455  S
Eu90         O96   2.355       .  S
Eu90       O1888   2.351   1_455  S
Eu90       O1932   2.349   1_455  S
Eu91       O1910   2.458   1_455  S
Eu91        O106   2.351       .  S
Eu91       O1897   2.353   1_455  S
Eu91       O1919   2.347   1_455  S
Eu92        O106   2.347       .  S
Eu92         O96   2.348       .  S
Eu93         O95   2.353       .  S
Eu93        O108   2.353       .  S
Eu94       O1905   2.465   1_455  S
Eu94        O106   2.351       .  S
Eu94         O96   2.348       .  S
Eu94       O1919   2.350   1_455  S
Eu94       O1932   2.353   1_455  S
O95       Eu1915   2.346       .  S
O95       Eu1918   2.350       .  S
C97         C428   1.474       .  S
C98         C441   1.478       .  S
C99         C318   1.483       .  S
C100        C328   1.489       .  S
C101        C298   1.487       .  S
C102        C308   1.483       .  S
C103        C288   1.488       .  S
C104        C268   1.483       .  S
H105        O106   0.961       .  S
H107        O108   0.961       .  S
O108      Eu1914   2.349       .  S
O108      Eu1918   2.353       .  S
O109        C120   1.291       .  A
O109       Eu145   2.450       .  S
O110        C121   1.293       .  A
O110       Eu144   2.470       .  S
O111        C122   1.289       .  A
O111       Eu117   2.445       .  S
O112        C123   1.292       .  A
O112      Eu1029   2.458       .  S
O113        C123   1.290       .  A
O113       Eu147   2.447       .  S
O114        C122   1.290       .  A
O114       Eu146   2.448       .  S
O115        C121   1.293       .  A
O115       Eu117   2.465       .  S
O116        C120   1.291       .  A
O116       Eu117   2.454       .  S
Eu117      O1024   2.443       .  S
Eu117       O119   2.354       .  S
Eu117       O125   2.349       .  S
Eu117      O1039   2.354       .  S
Eu117      O1030   2.347       .  S
O118       Eu147   2.357       .  S
O118      Eu1029   2.345       .  S
O118      Eu1056   2.351       .  S
O119       Eu145   2.350       .  S
O119       Eu146   2.349       .  S
C120       C1323   1.479       .  S
C121       C1313   1.491       .  S
C122        C228   1.473       .  S
C123        C218   1.479       .  S
H124        O125   0.963       .  S
O125       Eu146   2.355       .  S
O125       Eu144   2.349       .  S
H126        O127   0.960       .  S
O127       Eu147   2.350       .  S
O127      Eu1029   2.353       .  S
O127      Eu1057   2.353   1_545  S
O128        C151   1.291       .  A
O128       Eu144   2.452       .  S
O129        C152   1.293       .  A
O129       Eu145   2.465       .  S
O130        C153   1.293       .  A
O130       Eu146   2.464       .  S
O131        C154   1.292       .  A
O131       Eu147   2.460       .  S
O132        C155   1.292       .  A
O132       Eu147   2.462       .  S
O133        C156   1.291       .  A
O133       Eu146   2.455       .  S
O134        C157   1.289       .  A
O134       Eu148   2.442       .  S
O135        C158   1.290       .  A
O135      Eu1060   2.448   1_545  S
O136        C157   1.291       .  A
O136       Eu146   2.455       .  S
O137        C158   1.291       .  A
O137       Eu147   2.457       .  S
O138        C153   1.291       .  A
O138       Eu144   2.455       .  S
O139        C156   1.292       .  A
O139       Eu145   2.459       .  S
O140        C155   1.292       .  A
O140      Eu1057   2.461   1_545  S
O141        C154   1.291       .  A
O141      Eu1056   2.452       .  S
O142        C151   1.292       .  A
O142       Eu148   2.459       .  S
O143        C152   1.292       .  A
O143       Eu148   2.462       .  S
Eu144      O1053   2.461       .  S
Eu144       O150   2.350       .  S
Eu144      O1030   2.345       .  S
Eu144      O1074   2.358       .  S
Eu145      O1052   2.440       .  S
Eu145       O160   2.344       .  S
Eu145      O1039   2.356       .  S
Eu145      O1061   2.348       .  S
Eu146       O160   2.352       .  S
Eu146       O150   2.345       .  S
Eu147       O149   2.349       .  S
Eu147       O162   2.353       .  S
Eu148      O1047   2.442       .  S
Eu148       O160   2.349       .  S
Eu148       O150   2.348       .  S
Eu148      O1061   2.343       .  S
Eu148      O1074   2.354       .  S
O149      Eu1057   2.351   1_545  S
O149      Eu1060   2.350   1_545  S
C151       C1303   1.482       .  S
C152       C1293   1.486       .  S
C153        C291   1.486       .  S
C154        C281   1.479       .  S
C155        C261   1.488       .  S
C156        C271   1.483       .  S
C157        C238   1.476       .  S
C158        C248   1.479       .  S
H159        O160   0.961       .  S
H161        O162   0.960       .  S
O162      Eu1056   2.362       .  S
O162      Eu1060   2.349   1_545  S
O163        C174   1.295       .  A
O163       Eu199   2.476       .  S
O164        C175   1.292       .  A
O164       Eu198   2.458       .  S
O165        C176   1.288       .  A
O165       Eu627   2.432   1_554  S
O166        C177   1.289       .  A
O166       Eu171   2.446       .  S
O167        C177   1.294       .  A
O167       Eu201   2.469       .  S
O168        C176   1.292       .  A
O168       Eu200   2.455       .  S
O169        C175   1.287       .  A
O169       Eu171   2.432       .  S
O170        C174   1.287       .  A
O170       Eu171   2.431       .  S
Eu171       O621   2.459       .  S
Eu171       O181   2.349       .  S
Eu171       O172   2.348       .  S
Eu171       O629   2.348       .  S
Eu171       O635   2.348       .  S
O172       Eu201   2.351       .  S
O172       Eu198   2.350       .  S
O173       Eu200   2.350       .  S
O173       Eu627   2.348   1_554  S
O173       Eu655   2.344       .  S
C174        C827   1.482       .  S
C175        C817   1.476       .  S
C176        C311   1.477       .  S
C177        C321   1.484       .  S
H178        O179   0.961       .  S
O179       Eu200   2.355       .  S
O179       Eu627   2.355   1_554  S
O179       Eu654   2.348   1_554  S
H180        O181   0.962       .  S
O181       Eu199   2.345       .  S
O181       Eu201   2.351       .  S
O182        C205   1.292       .  A
O182       Eu198   2.464       .  S
O183        C206   1.291       .  A
O183       Eu199   2.455       .  S
O184        C207   1.290       .  A
O184       Eu200   2.448       .  S
O185        C208   1.292       .  A
O185       Eu201   2.459       .  S
O186        C209   1.293       .  A
O186       Eu201   2.465       .  S
O187        C210   1.289       .  A
O187       Eu200   2.443       .  S
O188        C211   1.292       .  A
O188       Eu658   2.462       .  S
O189        C212   1.293       .  A
O189       Eu202   2.463       .  S
O190        C211   1.292       .  A
O190       Eu200   2.465       .  S
O191        C212   1.293       .  A
O191       Eu201   2.462       .  S
O192        C207   1.290       .  A
O192       Eu654   2.453   1_554  S
O193        C210   1.292       .  A
O193       Eu655   2.457       .  S
O194        C209   1.291       .  A
O194       Eu199   2.453       .  S
O195        C208   1.289       .  A
O195       Eu198   2.441       .  S
O196        C205   1.293       .  A
O196       Eu202   2.467       .  S
O197        C206   1.295       .  A
O197       Eu202   2.475       .  S
Eu198       O648   2.446       .  S
Eu198       O216   2.351       .  S
Eu198       O635   2.352       .  S
Eu198       O660   2.352       .  S
Eu199       O649   2.445       .  S
Eu199       O203   2.354       .  S
Eu199       O629   2.349       .  S
Eu199       O670   2.357       .  S
Eu200       O214   2.350       .  S
Eu200       O204   2.341       .  S
Eu201       O203   2.350       .  S
Eu201       O216   2.355       .  S
Eu202       O644   2.458       .  S
Eu202       O203   2.355       .  S
Eu202       O216   2.351       .  S
Eu202       O670   2.352       .  S
Eu202       O660   2.351       .  S
O204       Eu654   2.347   1_554  S
O204       Eu658   2.341       .  S
C205        C797   1.488       .  S
C206        C807   1.486       .  S
C207        C231   1.476       .  S
C208        C241   1.477       .  S
C209        C251   1.481       .  S
C210        C221   1.478       .  S
C211        C301   1.489       .  S
C212        C331   1.488       .  S
H213        O214   0.961       .  S
O214       Eu655   2.358       .  S
O214       Eu658   2.346       .  S
H215        O216   0.961       .  S
C217        C218   1.406       .  A
C217        C222   1.397       .  A
C217        H223   1.083       .  S
C218        C219   1.405       .  A
C219        C220   1.394       .  A
C219        H224   1.083       .  S
C220        C221   1.404       .  A
C220        H225   1.083       .  S
C221        C222   1.407       .  A
C222        H226   1.083       .  S
C227        C228   1.404       .  A
C227        C232   1.393       .  A
C227        H233   1.083       .  S
C228        C229   1.405       .  A
C229        C230   1.396       .  A
C229        H234   1.083       .  S
C230        C231   1.406       .  A
C230        H235   1.083       .  S
C231        C232   1.405       .  A
C232        H236   1.083       .  S
C237        C238   1.404       .  A
C237        C242   1.396       .  A
C237        H243   1.083       .  S
C238        C239   1.405       .  A
C239        C240   1.394       .  A
C239        H244   1.083       .  S
C240        C241   1.405       .  A
C240        H245   1.083       .  S
C241        C242   1.405       .  A
C242        H246   1.083       .  S
C247        C248   1.405       .  A
C247        C252   1.397       .  A
C247        H253   1.083       .  S
C248        C249   1.405       .  A
C249        C250   1.397       .  A
C249        H254   1.083       .  S
C250        C251   1.407       .  A
C250        H255   1.083       .  S
C251        C252   1.405       .  A
C252        H256   1.083       .  S
C257        C258   1.408       .  A
C257        C262   1.400       .  A
C257        H263   1.083       .  S
C258        C259   1.406       .  A
C259        C260   1.399       .  A
C259        H264   1.083       .  S
C260        C261   1.407       .  A
C260        H265   1.083       .  S
C261        C262   1.407       .  A
C262        H266   1.083       .  S
C267        C268   1.406       .  A
C267        C272   1.398       .  A
C267        H273   1.083       .  S
C268        C269   1.407       .  A
C269        C270   1.397       .  A
C269        H274   1.083       .  S
C270        C271   1.406       .  A
C270        H275   1.083       .  S
C271        C272   1.406       .  A
C272        H276   1.083       .  S
C277        C278   1.408       .  A
C277        C282   1.397       .  A
C277        H283   1.083       .  S
C278        C279   1.403       .  A
C279        C280   1.395       .  A
C279        H284   1.083       .  S
C280        C281   1.406       .  A
C280        H285   1.083       .  S
C281        C282   1.405       .  A
C282        H286   1.083       .  S
C287        C288   1.406       .  A
C287        C292   1.397       .  A
C287        H293   1.083       .  S
C288        C289   1.408       .  A
C289        C290   1.400       .  A
C289        H294   1.083       .  S
C290        C291   1.406       .  A
C290        H295   1.083       .  S
C291        C292   1.407       .  A
C292        H296   1.083       .  S
C297        C298   1.406       .  A
C297        C302   1.399       .  A
C297        H303   1.083       .  S
C298        C299   1.407       .  A
C299        C300   1.400       .  A
C299        H304   1.083       .  S
C300        C301   1.407       .  A
C300        H305   1.083       .  S
C301        C302   1.407       .  A
C302        H306   1.083       .  S
C307        C308   1.407       .  A
C307        C312   1.395       .  A
C307        H313   1.083       .  S
C308        C309   1.406       .  A
C309        C310   1.396       .  A
C309        H314   1.083       .  S
C310        C311   1.407       .  A
C310        H315   1.083       .  S
C311        C312   1.404       .  A
C312        H316   1.083       .  S
C317        C318   1.408       .  A
C317        C322   1.399       .  A
C317        H323   1.083       .  S
C318        C319   1.405       .  A
C319        C320   1.396       .  A
C319        H324   1.083       .  S
C320        C321   1.408       .  A
C320        H325   1.083       .  S
C321        C322   1.405       .  A
C322        H326   1.083       .  S
C327        C328   1.409       .  A
C327        C332   1.401       .  A
C327        H333   1.083       .  S
C328        C329   1.406       .  A
C329        C330   1.398       .  A
C329        H334   1.083       .  S
C330        C331   1.407       .  A
C330        H335   1.083       .  S
C331        C332   1.407       .  A
C332        H336   1.083       .  S
C337        C338   1.408       .  A
C337        C342   1.398       .  A
C337        H343   1.083       .  S
C338        C339   1.406   1_554  A
C339        C340   1.397       .  A
C339        H344   1.083       .  S
C340        C341   1.406   1_556  A
C340        H345   1.083       .  S
C341        C661   1.483       .  S
C341        C342   1.407       .  A
C342        H346   1.083       .  S
C347        C348   1.407       .  A
C347        C352   1.397       .  A
C347        H353   1.083       .  S
C348        C349   1.406       .  A
C349        C350   1.396   1_556  A
C349        H354   1.083       .  S
C350        C351   1.406   1_554  A
C350        H355   1.083       .  S
C351        C662   1.482   1_556  S
C351        C352   1.406       .  A
C352        H356   1.083       .  S
C357        C358   1.408       .  A
C357        C362   1.398       .  A
C357        H363   1.083       .  S
C358        C359   1.405   1_556  A
C359        C360   1.397       .  A
C359        H364   1.083       .  S
C360        C361   1.406       .  A
C360        H365   1.083       .  S
C361        C631   1.481       .  S
C361        C362   1.406   1_554  A
C362        H366   1.083       .  S
C367        C368   1.407       .  A
C367        C372   1.399       .  A
C367        H373   1.083       .  S
C368        C369   1.407       .  A
C369        C370   1.397       .  A
C369        H374   1.083   1_554  S
C370        C371   1.406       .  A
C370        H375   1.083       .  S
C371        C630   1.485       .  S
C371        C372   1.408       .  A
C372        H376   1.083       .  S
C377        C378   1.407   1_545  A
C377        C382   1.400       .  A
C377        H383   1.083       .  S
C378        C379   1.407       .  A
C379        C380   1.402       .  A
C379        H384   1.083       .  S
C380        C381   1.407       .  A
C380        H385   1.083       .  S
C381       C1064   1.490       .  S
C381        C382   1.407   1_565  A
C382        H386   1.083       .  S
C387        C388   1.406   1_565  A
C387        C392   1.397       .  A
C387        H393   1.083       .  S
C388        C389   1.407       .  A
C389        C390   1.399       .  A
C389        H394   1.083       .  S
C390        C391   1.407       .  A
C390        H395   1.083       .  S
C391       C1063   1.486       .  S
C391        C392   1.407   1_545  A
C392        H396   1.083       .  S
C397        C398   1.407       .  A
C397        C402   1.399       .  A
C397        H403   1.083       .  S
C398        C399   1.406   1_545  A
C399        C400   1.399       .  A
C399        H404   1.083       .  S
C400        C401   1.406   1_565  A
C400        H405   1.083       .  S
C401       C1033   1.486       .  S
C401        C402   1.407       .  A
C402        H406   1.083       .  S
C407        C408   1.405   1_565  A
C407        C412   1.396       .  A
C407        H413   1.083       .  S
C408        C409   1.408       .  A
C409        C410   1.400       .  A
C409        H414   1.083       .  S
C410        C411   1.407       .  A
C410        H415   1.083       .  S
C411       C1032   1.485   1_545  S
C411        C412   1.406   1_545  A
C412        H416   1.083       .  S
C417        C422   1.397       .  A
C417       C2242   1.406       .  A
C417        H423   1.083       .  S
C418        C419   1.403   1_655  A
C418       C2241   1.406       .  A
C419        C420   1.395       .  A
C419        H424   1.083       .  S
C420        C421   1.405   1_455  A
C420        H425   1.083       .  S
C421       C2246   1.406       .  A
C422       C2245   1.405       .  A
C422        H426   1.083       .  S
C427        C428   1.404       .  A
C427        C432   1.396       .  A
C427        H433   1.083       .  S
C428       C2253   1.405   1_455  A
C429        C430   1.396       .  A
C429       C2252   1.405       .  A
C429        H434   1.083       .  S
C430       C2255   1.404       .  A
C430        H435   1.083       .  S
C431        C432   1.406       .  A
C431       C2254   1.404   1_455  A
C432        H436   1.083       .  S
C437        C442   1.397       .  A
C437       C2262   1.405       .  A
C437        H443   1.083       .  S
C438        C439   1.404   1_455  A
C438       C2261   1.405       .  A
C439        C440   1.395       .  A
C439        H444   1.083       .  S
C440        C441   1.404   1_655  A
C440        H445   1.083       .  S
C441       C2266   1.407       .  A
C442       C2265   1.407       .  A
C442        H446   1.083       .  S
C447        C448   1.404       .  A
C447        C452   1.394       .  A
C447        H453   1.083       .  S
C448       C2273   1.407   1_655  A
C449        C450   1.393       .  A
C449       C2272   1.407       .  A
C449        H454   1.083       .  S
C450       C2275   1.404       .  A
C450        H455   1.083       .  S
C451        C452   1.406       .  A
C451       C2274   1.404   1_655  A
C452        H456   1.083       .  S
O457        C468   1.291       .  A
O457       Eu493   2.454       .  S
O458        C469   1.290   1_455  A
O458       Eu492   2.452   1_445  S
O459        C470   1.293       .  A
O459       Eu465   2.467   1_455  S
O460        C471   1.292       .  A
O460      Eu2289   2.460       .  S
O461        C471   1.292       .  A
O461       Eu495   2.462   1_545  S
O462        C470   1.291       .  A
O462       Eu494   2.454       .  S
O463        C469   1.290       .  A
O464        C468   1.288       .  A
O464       Eu465   2.440       .  S
Eu465      O2284   2.460       .  S
Eu465      O2299   2.351       .  S
Eu465       O467   2.356   1_655  S
Eu465      O1834   2.350       .  S
O466      Eu1833   2.352       .  S
O466      Eu2316   2.353   1_545  S
O467       Eu493   2.353   1_455  S
O467       Eu494   2.354       .  S
C468        C904   1.476       .  S
C469        C874   1.471       .  S
C470        C824   1.484       .  S
C471        C804   1.486       .  S
H472        O473   0.962       .  S
O473       Eu492   2.355   1_445  S
H474        O475   0.961       .  S
O475      Eu2289   2.351       .  S
O475      Eu2317   2.346       .  S
O475       Eu495   2.350   1_545  S
O476        C499   1.290       .  A
O476      Eu1404   2.450   1_455  S
O477        C500   1.290       .  A
O477      Eu1405   2.449   1_655  S
O478        C501   1.292   1_545  A
O479        C502   1.290       .  A
O480        C503   1.291       .  A
O480       Eu495   2.452       .  S
O481        C504   1.293       .  A
O481       Eu494   2.463       .  S
O482        C505   1.290       .  A
O482       Eu496   2.449       .  S
O483        C506   1.292       .  A
O483      Eu2320   2.459       .  S
O484        C505   1.291       .  A
O484      Eu1406   2.456       .  S
O485        C506   1.289       .  A
O485      Eu1407   2.447       .  S
O486        C501   1.290       .  A
O486       Eu492   2.447   1_455  S
O487        C504   1.290       .  A
O487       Eu493   2.450   1_455  S
O488        C503   1.292   1_545  A
O488      Eu2317   2.461       .  S
O489        C502   1.291       .  A
O489      Eu2316   2.453   1_545  S
O490        C499   1.290   1_655  A
O491        C500   1.292       .  A
O491       Eu496   2.456   1_655  S
Eu492      O1388   2.459   1_655  S
Eu492      O2313   2.455       .  S
Eu492      O2290   2.353   1_565  S
Eu492      O3246   2.350       .  S
Eu492      O1410   2.350   1_655  S
Eu493      O1389   2.447   1_645  S
Eu493      O2312   2.460   1_545  S
Eu493      O2299   2.347       .  S
Eu493      O3233   2.349   1_545  S
Eu493      O1420   2.356   1_645  S
Eu494      O1396   2.469   1_545  S
Eu494      O1420   2.344   1_545  S
Eu494       O954   2.351   1_545  S
Eu495      O1397   2.452       .  S
Eu495      O1409   2.350       .  S
Eu495       O966   2.352       .  S
Eu496      O2307   2.459   1_455  S
Eu496      O2321   2.349   1_455  S
Eu496       O508   2.354       .  S
Eu496      O1878   2.347   1_455  S
O497      Eu3229   2.348       .  S
O497      Eu1407   2.343       .  S
O497      Eu2320   2.349       .  S
O498      Eu1404   2.348   1_455  S
O498       Eu950   2.348   1_556  S
C499        C887   1.470       .  S
C500        C894   1.476       .  S
C501        C844   1.481       .  S
C502        C834   1.478   1_545  S
C503        C864   1.483       .  S
C504        C854   1.482       .  S
C505        C814   1.479       .  S
C506        C794   1.484       .  S
H507        O508   0.961       .  S
O508      Eu1405   2.361       .  S
O508      Eu1406   2.357       .  S
H509        O510   0.962       .  S
O510      Eu3228   2.351       .  S
O510       Eu951   2.351       .  S
O510      Eu1864   2.352   1_556  S
O511        C522   1.288       .  A
O511       Eu547   2.437       .  S
O512        C523   1.290       .  A
O512       Eu546   2.444       .  S
O513        C524   1.291       .  A
O513       Eu519   2.457   1_455  S
O514        C525   1.291       .  A
O514      Eu2343   2.456       .  S
O515        C525   1.291       .  A
O515       Eu549   2.453       .  S
O516        C524   1.292       .  A
O516       Eu548   2.463       .  S
O517        C523   1.290       .  A
O517       Eu519   2.447       .  S
O518        C522   1.290       .  A
O518       Eu519   2.446       .  S
Eu519      O2338   2.457       .  S
Eu519      O2353   2.349       .  S
Eu519       O521   2.350   1_655  S
Eu519      O2344   2.349       .  S
Eu519       O527   2.351   1_655  S
O520      Eu2343   2.349       .  S
O520       Eu549   2.343       .  S
O520      Eu2370   2.348       .  S
O521       Eu547   2.356   1_455  S
O521       Eu548   2.347       .  S
C522        C907   1.474       .  S
C523        C877   1.468       .  S
C524        C734   1.485       .  S
C525        C714   1.482       .  S
H526        O527   0.962       .  S
O527       Eu548   2.350       .  S
O527       Eu546   2.358   1_455  S
H528        O529   0.962       .  S
O529      Eu2343   2.349       .  S
O529      Eu2371   2.349       .  S
O529       Eu549   2.345       .  S
O530        C553   1.291       .  A
O530       Eu546   2.459       .  S
O531        C554   1.289       .  A
O531       Eu547   2.443       .  S
O532        C555   1.292       .  A
O532       Eu548   2.459       .  S
O533        C556   1.289       .  A
O533       Eu549   2.443       .  S
O534        C557   1.288       .  A
O534       Eu549   2.440       .  S
O535        C558   1.293       .  A
O535       Eu548   2.467       .  S
O536        C559   1.293       .  A
O536       Eu550   2.463   1_455  S
O537        C560   1.291       .  A
O537      Eu2374   2.455       .  S
O538        C559   1.290       .  A
O538       Eu548   2.447       .  S
O539        C560   1.290       .  A
O539       Eu549   2.450       .  S
O540        C555   1.291       .  A
O540       Eu546   2.454   1_455  S
O541        C558   1.291       .  A
O541       Eu547   2.458   1_455  S
O542        C557   1.293       .  A
O542      Eu2371   2.467       .  S
O543        C556   1.292       .  A
O543      Eu2370   2.461       .  S
O544        C553   1.289       .  A
O544       Eu550   2.442       .  S
O545        C554   1.290       .  A
O545       Eu550   2.452       .  S
Eu546      O2367   2.460       .  S
Eu546      O2344   2.348       .  S
Eu546      O2388   2.343       .  S
Eu546       O552   2.350   1_655  S
Eu547      O2366   2.466       .  S
Eu547      O2353   2.349       .  S
Eu547      O2375   2.343       .  S
Eu547       O562   2.348   1_655  S
Eu548       O562   2.353       .  S
Eu548       O552   2.356       .  S
Eu549       O551   2.348       .  S
Eu549       O564   2.347       .  S
Eu550      O2361   2.454       .  S
Eu550      O2375   2.348       .  S
Eu550       O562   2.347   1_655  S
Eu550      O2388   2.352       .  S
Eu550       O552   2.348   1_655  S
O551      Eu2371   2.342       .  S
O551      Eu2374   2.348       .  S
C553        C884   1.470       .  S
C554        C897   1.474       .  S
C555        C774   1.483       .  S
C556        C784   1.481       .  S
C557        C754   1.480       .  S
C558        C764   1.488       .  S
C559        C744   1.483       .  S
C560        C724   1.481       .  S
H561        O562   0.960       .  S
H563        O564   0.961       .  S
O564      Eu2370   2.344       .  S
O564      Eu2374   2.353       .  S
O565        C576   1.292       .  A
O565       Eu601   2.460       .  S
O566        C577   1.292       .  A
O566       Eu600   2.455       .  S
O567        C578   1.288       .  A
O567       Eu573   2.437       .  S
O568        C579   1.290       .  A
O568      Eu1485   2.448       .  S
O569        C579   1.290       .  A
O569       Eu603   2.451       .  S
O570        C578   1.290       .  A
O570       Eu602   2.441       .  S
O571        C577   1.290       .  A
O571       Eu573   2.446       .  S
O572        C576   1.292       .  A
O572       Eu573   2.461       .  S
Eu573      O1480   2.462       .  S
Eu573      O1495   2.344       .  S
Eu573       O575   2.350       .  S
Eu573      O1486   2.349       .  S
Eu573       O581   2.357       .  S
O574      Eu1485   2.343       .  S
O574       Eu603   2.339       .  S
O574      Eu1512   2.342       .  S
O575       Eu601   2.346       .  S
O575       Eu602   2.353       .  S
C576       C1779   1.486       .  S
C577       C1769   1.478       .  S
C578        C684   1.470       .  S
C579        C674   1.476       .  S
H580        O581   0.962       .  S
O581       Eu602   2.350       .  S
O581       Eu600   2.354       .  S
H582        O583   0.961       .  S
O583      Eu1485   2.349       .  S
O583      Eu1513   2.355       .  S
O583       Eu603   2.356       .  S
O584        C607   1.293       .  A
O584       Eu600   2.464       .  S
O585        C608   1.291       .  A
O585       Eu601   2.452       .  S
O586        C609   1.292       .  A
O586       Eu602   2.463       .  S
O587        C610   1.293       .  A
O587       Eu603   2.464       .  S
O588        C611   1.292       .  A
O588       Eu603   2.460       .  S
O589        C612   1.293       .  A
O589       Eu602   2.463       .  S
O590        C613   1.289       .  A
O590       Eu604   2.442       .  S
O591        C614   1.291       .  A
O591      Eu1516   2.455       .  S
O592        C613   1.289       .  A
O592       Eu602   2.441       .  S
O593        C614   1.290       .  A
O593       Eu603   2.445       .  S
O594        C609   1.293       .  A
O594       Eu600   2.463       .  S
O595        C612   1.290       .  A
O595       Eu601   2.450       .  S
O596        C611   1.292       .  A
O596      Eu1513   2.457       .  S
O597        C610   1.288       .  A
O597      Eu1512   2.440       .  S
O598        C607   1.290       .  A
O598       Eu604   2.451       .  S
O599        C608   1.291       .  A
O599       Eu604   2.453       .  S
Eu600      O1509   2.468       .  S
Eu600      O1486   2.354       .  S
Eu600      O1530   2.348       .  S
Eu600       O606   2.349       .  S
Eu601      O1508   2.448       .  S
Eu601      O1495   2.349       .  S
Eu601      O1517   2.350       .  S
Eu601       O616   2.348       .  S
Eu602       O616   2.345       .  S
Eu602       O606   2.350       .  S
Eu603       O605   2.353       .  S
Eu603       O618   2.351       .  S
Eu604      O1503   2.437       .  S
Eu604      O1517   2.351       .  S
Eu604       O616   2.347       .  S
Eu604      O1530   2.347       .  S
Eu604       O606   2.347       .  S
O605      Eu1513   2.350       .  S
O605      Eu1516   2.349       .  S
C607       C1759   1.484       .  S
C608       C1749   1.483       .  S
C609        C747   1.487       .  S
C610        C737   1.482       .  S
C611        C717   1.483       .  S
C612        C727   1.483       .  S
C613        C694   1.471       .  S
C614        C704   1.470       .  S
H615        O616   0.961       .  S
H617        O618   0.960       .  S
O618      Eu1512   2.347       .  S
O618      Eu1516   2.350       .  S
O619        C630   1.292       .  A
O619       Eu655   2.462       .  S
O620        C631   1.291       .  A
O620       Eu654   2.455   1_554  S
O621        C632   1.291       .  A
O622        C633   1.290       .  A
O622       Eu627   2.448       .  S
O623        C633   1.292       .  A
O623       Eu657   2.461       .  S
O624        C632   1.292       .  A
O624       Eu656   2.460       .  S
O625        C631   1.290   1_556  A
O625       Eu627   2.451       .  S
O626        C630   1.291       .  A
O626       Eu627   2.453   1_554  S
Eu627       O637   2.347       .  S
Eu627       O628   2.347       .  S
O628       Eu657   2.349       .  S
O628       Eu654   2.350       .  S
O629       Eu656   2.349       .  S
C632        C767   1.487       .  S
C633        C777   1.482       .  S
H634        O635   0.961       .  S
O635       Eu656   2.352       .  S
H636        O637   0.962       .  S
O637       Eu655   2.352   1_556  S
O637       Eu657   2.353       .  S
O638        C661   1.290   1_556  A
O638       Eu654   2.448       .  S
O639        C662   1.291   1_556  A
O639       Eu655   2.451   1_556  S
O640        C663   1.289       .  A
O640       Eu656   2.444       .  S
O641        C664   1.292       .  A
O641       Eu657   2.458       .  S
O642        C665   1.290       .  A
O642       Eu657   2.450       .  S
O643        C666   1.291       .  A
O643       Eu656   2.455       .  S
O644        C667   1.292       .  A
O645        C668   1.290       .  A
O645       Eu658   2.445   1_556  S
O646        C667   1.292       .  A
O646       Eu656   2.461       .  S
O647        C668   1.292       .  A
O647       Eu657   2.460       .  S
O648        C663   1.290       .  A
O649        C666   1.290       .  A
O650        C665   1.292       .  A
O650       Eu655   2.463   1_556  S
O651        C664   1.290       .  A
O651       Eu654   2.448       .  S
O652        C661   1.292       .  A
O652       Eu658   2.461       .  S
O653        C662   1.292       .  A
O653       Eu658   2.457       .  S
Eu654       O672   2.352       .  S
Eu655       O659   2.350   1_554  S
Eu656       O670   2.351       .  S
Eu656       O660   2.353       .  S
Eu657       O659   2.352       .  S
Eu657       O672   2.353       .  S
Eu658       O659   2.352   1_554  S
Eu658       O672   2.355   1_554  S
C663        C687   1.473       .  S
C664        C697   1.476       .  S
C665        C707   1.471       .  S
C666        C677   1.476       .  S
C667        C757   1.482       .  S
C668        C787   1.480       .  S
H669        O670   0.961       .  S
H671        O672   0.962       .  S
C673        C674   1.405       .  A
C673        C678   1.396       .  A
C673        H679   1.083       .  S
C674        C675   1.404       .  A
C675        C676   1.395       .  A
C675        H680   1.083       .  S
C676        C677   1.406       .  A
C676        H681   1.083       .  S
C677        C678   1.405       .  A
C678        H682   1.083       .  S
C683        C684   1.405       .  A
C683        C688   1.392       .  A
C683        H689   1.083       .  S
C684        C685   1.403       .  A
C685        C686   1.392       .  A
C685        H690   1.083       .  S
C686        C687   1.405       .  A
C686        H691   1.083       .  S
C687        C688   1.404       .  A
C688        H692   1.083       .  S
C693        C694   1.404       .  A
C693        C698   1.394       .  A
C693        H699   1.083       .  S
C694        C695   1.404       .  A
C695        C696   1.395       .  A
C695        H700   1.083       .  S
C696        C697   1.406       .  A
C696        H701   1.083       .  S
C697        C698   1.404       .  A
C698        H702   1.083       .  S
C703        C704   1.404       .  A
C703        C708   1.397       .  A
C703        H709   1.083       .  S
C704        C705   1.403       .  A
C705        C706   1.396       .  A
C705        H710   1.083       .  S
C706        C707   1.403       .  A
C706        H711   1.083       .  S
C707        C708   1.404       .  A
C708        H712   1.083       .  S
C713        C714   1.405       .  A
C713        C718   1.397       .  A
C713        H719   1.083       .  S
C714        C715   1.407       .  A
C715        C716   1.398       .  A
C715        H720   1.083       .  S
C716        C717   1.406       .  A
C716        H721   1.083       .  S
C717        C718   1.406       .  A
C718        H722   1.083       .  S
C723        C724   1.405       .  A
C723        C728   1.397       .  A
C723        H729   1.083       .  S
C724        C725   1.407       .  A
C725        C726   1.396       .  A
C725        H730   1.083       .  S
C726        C727   1.405       .  A
C726        H731   1.083       .  S
C727        C728   1.408       .  A
C728        H732   1.083       .  S
C733        C734   1.406       .  A
C733        C738   1.396       .  A
C733        H739   1.083       .  S
C734        C735   1.407       .  A
C735        C736   1.399       .  A
C735        H740   1.083       .  S
C736        C737   1.408       .  A
C736        H741   1.083       .  S
C737        C738   1.404       .  A
C738        H742   1.083       .  S
C743        C744   1.406       .  A
C743        C748   1.397       .  A
C743        H749   1.083       .  S
C744        C745   1.407       .  A
C745        C746   1.399       .  A
C745        H750   1.083       .  S
C746        C747   1.408       .  A
C746        H751   1.083       .  S
C747        C748   1.406       .  A
C748        H752   1.083       .  S
C753        C754   1.404       .  A
C753        C758   1.396       .  A
C753        H759   1.083       .  S
C754        C755   1.408       .  A
C755        C756   1.399       .  A
C755        H760   1.083       .  S
C756        C757   1.406       .  A
C756        H761   1.083       .  S
C757        C758   1.406       .  A
C758        H762   1.083       .  S
C763        C764   1.406       .  A
C763        C768   1.396       .  A
C763        H769   1.083       .  S
C764        C765   1.409       .  A
C765        C766   1.402       .  A
C765        H770   1.083       .  S
C766        C767   1.408       .  A
C766        H771   1.083       .  S
C767        C768   1.406       .  A
C768        H772   1.083       .  S
C773        C774   1.406       .  A
C773        C778   1.397       .  A
C773        H779   1.083       .  S
C774        C775   1.407       .  A
C775        C776   1.397       .  A
C775        H780   1.083       .  S
C776        C777   1.406       .  A
C776        H781   1.083       .  S
C777        C778   1.406       .  A
C778        H782   1.083       .  S
C783        C784   1.405       .  A
C783        C788   1.396       .  A
C783        H789   1.083       .  S
C784        C785   1.407       .  A
C785        C786   1.395       .  A
C785        H790   1.083       .  S
C786        C787   1.405       .  A
C786        H791   1.083       .  S
C787        C788   1.407       .  A
C788        H792   1.083       .  S
C793        C794   1.408       .  A
C793        C798   1.401       .  A
C793        H799   1.083       .  S
C794        C795   1.404       .  A
C795        C796   1.396       .  A
C795        H800   1.083       .  S
C796        C797   1.407       .  A
C796        H801   1.083       .  S
C797        C798   1.408       .  A
C798        H802   1.083       .  S
C803        C804   1.406       .  A
C803        C808   1.401       .  A
C803        H809   1.083       .  S
C804        C805   1.407       .  A
C805        C806   1.398       .  A
C805        H810   1.083       .  S
C806        C807   1.405       .  A
C806        H811   1.083       .  S
C807        C808   1.409       .  A
C808        H812   1.083       .  S
C813        C814   1.406       .  A
C813        C818   1.394       .  A
C813        H819   1.083       .  S
C814        C815   1.406       .  A
C815        C816   1.395       .  A
C815        H820   1.083       .  S
C816        C817   1.407       .  A
C816        H821   1.083       .  S
C817        C818   1.403       .  A
C818        H822   1.083       .  S
C823        C824   1.406       .  A
C823        C828   1.400       .  A
C823        H829   1.083       .  S
C824        C825   1.407       .  A
C825        C826   1.395       .  A
C825        H830   1.083       .  S
C826        C827   1.402       .  A
C826        H831   1.083       .  S
C827        C828   1.410       .  A
C828        H832   1.083       .  S
C833        C834   1.406       .  A
C833        C838   1.394       .  A
C833        H839   1.083       .  S
C834        C835   1.405   1_565  A
C835        C836   1.396       .  A
C835        H840   1.083       .  S
C836        C837   1.407   1_545  A
C836        H841   1.083       .  S
C837       C1520   1.479       .  S
C837        C838   1.404       .  A
C838        H842   1.083       .  S
C843        C844   1.406       .  A
C843        C848   1.397       .  A
C843        H849   1.083       .  S
C844        C845   1.406   1_565  A
C845        C846   1.396       .  A
C845        H850   1.083       .  S
C846        C847   1.404   1_545  A
C846        H851   1.083       .  S
C847       C1519   1.481       .  S
C847        C848   1.408       .  A
C848        H852   1.083       .  S
C853        C854   1.405   1_565  A
C853        C858   1.393       .  A
C853        H859   1.083       .  S
C854        C855   1.407       .  A
C855        C856   1.398       .  A
C855        H860   1.083       .  S
C856        C857   1.408       .  A
C856        H861   1.083       .  S
C857       C1489   1.478       .  S
C857        C858   1.403   1_545  A
C858        H862   1.083       .  S
C863        C864   1.406   1_545  A
C863        C868   1.397       .  A
C863        H869   1.083       .  S
C864        C865   1.407       .  A
C865        C866   1.398       .  A
C865        H870   1.083       .  S
C866        C867   1.405   1_565  A
C866        H871   1.083       .  S
C867       C1488   1.483       .  S
C867        C868   1.407       .  A
C868        H872   1.083       .  S
C873       C2698   1.404       .  A
C873        C878   1.393       .  A
C873        H879   1.083       .  S
C874       C2697   1.405       .  A
C874        C875   1.404   1_655  A
C875        C876   1.394       .  A
C875        H880   1.083       .  S
C876        C877   1.404   1_455  A
C876        H881   1.083       .  S
C877       C2702   1.403       .  A
C878       C2701   1.403       .  A
C878        H882   1.083       .  S
C883        C884   1.403       .  A
C883        C888   1.396       .  A
C883        H889   1.083       .  S
C884       C2709   1.405   1_655  A
C885       C2708   1.405       .  A
C885        C886   1.394       .  A
C885        H890   1.083       .  S
C886       C2711   1.402       .  A
C886        H891   1.083       .  S
C887       C2710   1.403       .  A
C887        C888   1.405   1_455  A
C888        H892   1.083       .  S
C893       C2718   1.407       .  A
C893        C898   1.398       .  A
C893        H899   1.083       .  S
C894       C2717   1.407       .  A
C894        C895   1.404   1_655  A
C895        C896   1.393       .  A
C895        H900   1.083       .  S
C896        C897   1.404   1_455  A
C896        H901   1.083       .  S
C897       C2722   1.405       .  A
C898       C2721   1.405       .  A
C898        H902   1.083       .  S
C903        C904   1.407       .  A
C903        C908   1.395       .  A
C903        H909   1.083       .  S
C904       C2729   1.404       .  A
C905       C2728   1.404       .  A
C905        C906   1.391       .  A
C905        H910   1.083       .  S
C906       C2731   1.404       .  A
C906        H911   1.083       .  S
C907       C2730   1.404       .  A
C907        C908   1.405       .  A
C908        H912   1.083       .  S
O913        C924   1.289       .  A
O913       Eu949   2.441   1_455  S
O914        C925   1.290       .  A
O914       Eu948   2.447   1_655  S
O915        C926   1.290       .  A
O915       Eu921   2.445   1_454  S
O916        C927   1.291       .  A
O916      Eu2745   2.456       .  S
O917        C927   1.291       .  A
O917       Eu951   2.455       .  S
O918        C926   1.291       .  A
O918       Eu950   2.452       .  S
O919        C925   1.289   1_455  A
O919      Eu1377   2.441       .  S
O920        C924   1.290       .  A
O920       Eu921   2.450   1_454  S
Eu921      O2740   2.455       .  S
Eu921      O1375   2.447   1_655  S
Eu921      O2755   2.350   1_556  S
Eu921       O923   2.353   1_656  S
Eu921      O3202   2.350       .  S
Eu921      O1385   2.352   1_655  S
O922      Eu3201   2.345       .  S
O922      Eu1407   2.345       .  S
O922      Eu2772   2.349       .  S
O923       Eu949   2.346   1_455  S
O923       Eu950   2.347       .  S
C924       C1360   1.476       .  S
C925       C1330   1.474       .  S
C926       C1280   1.479   1_554  S
C927       C1260   1.483       .  S
H928        O929   0.962       .  S
O929      Eu1377   2.357       .  S
O929      Eu1406   2.350       .  S
O929       Eu948   2.351       .  S
H930        O931   0.961       .  S
O931      Eu2745   2.350   1_554  S
O931      Eu2773   2.359       .  S
O931       Eu951   2.353   1_554  S
O932        C955   1.289       .  A
O933        C956   1.291       .  A
O934        C957   1.291       .  A
O934      Eu1406   2.457       .  S
O935        C958   1.290       .  A
O935      Eu1407   2.446       .  S
O936        C959   1.291       .  A
O936       Eu951   2.456   1_554  S
O937        C960   1.290       .  A
O937       Eu950   2.452       .  S
O938        C961   1.294       .  A
O938       Eu952   2.469   1_455  S
O939        C962   1.291       .  A
O939      Eu2776   2.454       .  S
O940        C961   1.292       .  A
O941        C962   1.292   1_556  A
O942        C957   1.294       .  A
O942       Eu948   2.473       .  S
O943        C960   1.294       .  A
O943       Eu949   2.471   1_455  S
O944        C959   1.291       .  A
O944      Eu2773   2.452       .  S
O945        C958   1.292       .  A
O945      Eu2772   2.456       .  S
O946        C955   1.293       .  A
O946      Eu1408   2.468       .  S
O947        C956   1.290       .  A
O947       Eu952   2.445       .  S
Eu948      O2769   2.458   1_455  S
Eu948      O2746   2.349   1_455  S
Eu948      O1878   2.355   1_455  S
Eu949      O2768   2.452       .  S
Eu949      O2755   2.359       .  S
Eu949      O1865   2.353       .  S
Eu950      O1390   2.445   1_554  S
Eu950      O1385   2.351   1_554  S
Eu951      O1391   2.452       .  S
Eu951      O1378   2.348       .  S
Eu952      O2763   2.454       .  S
Eu952      O1402   2.438   1_554  S
Eu952      O2777   2.348       .  S
Eu952       O964   2.350   1_655  S
Eu952      O3246   2.353   1_554  S
Eu952      O1410   2.351   1_654  S
O953      Eu1861   2.345   1_565  S
O953      Eu2776   2.348       .  S
O954      Eu1408   2.344       .  S
C955       C1343   1.479       .  S
C956       C1350   1.480       .  S
C957       C1300   1.487       .  S
C958       C1290   1.481       .  S
C959       C1320   1.480       .  S
C960       C1310   1.489       .  S
C961       C1270   1.490       .  S
C962       C1250   1.484       .  S
H963        O964   0.961       .  S
H965        O966   0.962       .  S
O966      Eu1860   2.352   1_565  S
O966      Eu3232   2.353       .  S
O967        C978   1.290       .  A
O967      Eu1003   2.444   1_455  S
O968        C979   1.291       .  A
O968      Eu1002   2.455       .  S
O969        C980   1.293       .  A
O969       Eu975   2.464       .  S
O970        C981   1.292       .  A
O970      Eu2799   2.461       .  S
O971        C981   1.287       .  A
O971      Eu1005   2.432       .  S
O972        C980   1.292       .  A
O972      Eu1004   2.459       .  S
O973        C979   1.290       .  A
O973       Eu975   2.448       .  S
O974        C978   1.291       .  A
O974       Eu975   2.450       .  S
Eu975      O2794   2.463   1_455  S
Eu975      O2809   2.355   1_455  S
Eu975       O977   2.346       .  S
Eu975      O2800   2.345   1_455  S
Eu975       O983   2.350       .  S
O976      Eu2799   2.346       .  S
O976      Eu1005   2.350       .  S
O976      Eu2826   2.348       .  S
O977      Eu1003   2.350   1_455  S
O977      Eu1004   2.340       .  S
C978       C1363   1.476       .  S
C979       C1333   1.477       .  S
C980       C1190   1.487       .  S
C981       C1170   1.477       .  S
H982        O983   0.962       .  S
O983      Eu1004   2.348       .  S
O983      Eu1002   2.353       .  S
H984        O985   0.962       .  S
O985      Eu2799   2.355       .  S
O985      Eu2827   2.355       .  S
O985      Eu1005   2.349       .  S
O986       C1009   1.292       .  A
O986      Eu1002   2.458   1_655  S
O987       C1010   1.293       .  A
O987      Eu1003   2.465       .  S
O988       C1011   1.291       .  A
O988      Eu1004   2.454       .  S
O989       C1012   1.290       .  A
O989      Eu1005   2.445       .  S
O990       C1013   1.292       .  A
O990      Eu1005   2.461       .  S
O991       C1014   1.291       .  A
O991      Eu1004   2.452       .  S
O992       C1015   1.293       .  A
O992      Eu1006   2.460   1_455  S
O993       C1016   1.293       .  A
O993      Eu2830   2.467       .  S
O994       C1015   1.290       .  A
O994      Eu1004   2.445       .  S
O995       C1016   1.290       .  A
O995      Eu1005   2.450       .  S
O996       C1011   1.293       .  A
O996      Eu1002   2.463       .  S
O997       C1014   1.292       .  A
O997      Eu1003   2.458   1_455  S
O998       C1013   1.292       .  A
O998      Eu2827   2.459       .  S
O999       C1012   1.291       .  A
O999      Eu2826   2.454       .  S
O1000      C1009   1.290       .  A
O1000     Eu1006   2.449       .  S
O1001      C1010   1.290       .  A
O1001     Eu1006   2.450       .  S
Eu1002     O2823   2.456   1_455  S
Eu1002     O2800   2.348   1_455  S
Eu1002     O2844   2.353   1_455  S
Eu1002     O1008   2.347       .  S
Eu1003     O2822   2.456       .  S
Eu1003     O2809   2.356       .  S
Eu1003     O2831   2.351       .  S
Eu1003     O1018   2.347   1_655  S
Eu1004     O1018   2.355       .  S
Eu1004     O1008   2.350       .  S
Eu1005     O1007   2.350       .  S
Eu1005     O1020   2.347       .  S
Eu1006     O2817   2.466       .  S
Eu1006     O2831   2.354       .  S
Eu1006     O1018   2.353   1_655  S
Eu1006     O2844   2.348       .  S
Eu1006     O1008   2.353   1_655  S
O1007     Eu2827   2.351       .  S
O1007     Eu2830   2.354       .  S
C1009      C1340   1.477       .  S
C1010      C1353   1.482       .  S
C1011      C1230   1.486       .  S
C1012      C1240   1.479       .  S
C1013      C1210   1.484       .  S
C1014      C1220   1.482       .  S
C1015      C1200   1.482       .  S
C1016      C1180   1.485       .  S
H1017      O1018   0.961       .  S
H1019      O1020   0.961       .  S
O1020     Eu2826   2.354       .  S
O1020     Eu2830   2.348       .  S
O1021      C1032   1.293       .  A
O1021     Eu1057   2.461       .  S
O1022      C1033   1.293       .  A
O1022     Eu1056   2.466       .  S
O1023      C1034   1.291       .  A
O1023     Eu1029   2.456   1_565  S
O1024      C1035   1.289       .  A
O1025      C1035   1.291       .  A
O1025     Eu1059   2.452       .  S
O1026      C1034   1.289       .  A
O1026     Eu1058   2.449       .  S
O1027      C1033   1.292       .  A
O1027     Eu1029   2.461       .  S
O1028      C1032   1.292   1_545  A
O1028     Eu1029   2.455       .  S
Eu1029     O1031   2.354   1_545  S
Eu1029     O1037   2.352   1_545  S
O1030     Eu1059   2.350       .  S
O1031     Eu1057   2.352       .  S
O1031     Eu1058   2.347       .  S
C1034      C1140   1.471       .  S
C1035      C1130   1.474       .  S
H1036      O1037   0.963       .  S
O1037     Eu1058   2.358       .  S
O1037     Eu1056   2.352   1_565  S
H1038      O1039   0.961       .  S
O1039     Eu1059   2.353       .  S
O1040      C1063   1.292       .  A
O1040     Eu1056   2.457       .  S
O1041      C1064   1.294       .  A
O1041     Eu1057   2.475       .  S
O1042      C1065   1.291       .  A
O1042     Eu1058   2.450       .  S
O1043      C1066   1.292       .  A
O1043     Eu1059   2.460       .  S
O1044      C1067   1.291       .  A
O1044     Eu1059   2.452       .  S
O1045      C1068   1.291       .  A
O1045     Eu1058   2.458       .  S
O1046      C1069   1.288       .  A
O1046     Eu1060   2.438       .  S
O1047      C1070   1.288       .  A
O1048      C1069   1.292       .  A
O1048     Eu1058   2.456       .  S
O1049      C1070   1.291       .  A
O1049     Eu1059   2.451       .  S
O1050      C1065   1.294       .  A
O1050     Eu1056   2.470   1_565  S
O1051      C1068   1.291       .  A
O1051     Eu1057   2.452       .  S
O1052      C1067   1.289       .  A
O1053      C1066   1.292       .  A
O1054      C1063   1.293       .  A
O1054     Eu1060   2.464   1_545  S
O1055      C1064   1.292       .  A
O1055     Eu1060   2.462       .  S
Eu1056     O1062   2.350   1_545  S
Eu1057     O1072   2.347       .  S
Eu1058     O1072   2.348       .  S
Eu1058     O1062   2.355       .  S
Eu1059     O1061   2.348       .  S
Eu1059     O1074   2.351       .  S
Eu1060     O1072   2.350       .  S
Eu1060     O1062   2.354       .  S
C1065      C1203   1.485       .  S
C1066      C1193   1.486       .  S
C1067      C1173   1.476       .  S
C1068      C1183   1.484       .  S
C1069      C1150   1.477       .  S
C1070      C1160   1.476       .  S
H1071      O1072   0.961       .  S
H1073      O1074   0.961       .  S
O1075      C1086   1.290       .  A
O1075     Eu1111   2.451       .  S
O1076      C1087   1.292       .  A
O1076     Eu1110   2.459       .  S
O1077      C1088   1.291       .  A
O1077     Eu1539   2.453   1_554  S
O1078      C1089   1.292       .  A
O1078     Eu1083   2.462       .  S
O1079      C1089   1.293       .  A
O1079     Eu1113   2.466       .  S
O1080      C1088   1.293       .  A
O1080     Eu1112   2.466       .  S
O1081      C1087   1.292       .  A
O1081     Eu1083   2.458       .  S
O1082      C1086   1.293       .  A
O1082     Eu1083   2.467       .  S
Eu1083     O1533   2.458       .  S
Eu1083     O1093   2.348       .  S
Eu1083     O1541   2.346       .  S
Eu1083     O1084   2.346       .  S
Eu1083     O1547   2.359       .  S
O1084     Eu1113   2.344       .  S
O1084     Eu1110   2.351       .  S
O1085     Eu1539   2.354   1_554  S
O1085     Eu1567   2.355       .  S
O1085     Eu1112   2.356       .  S
C1086      C1739   1.485       .  S
C1087      C1729   1.486       .  S
C1088      C1223   1.484       .  S
C1089      C1233   1.489       .  S
H1090      O1091   0.961       .  S
O1091     Eu1539   2.351   1_554  S
O1091     Eu1112   2.347       .  S
O1091     Eu1566   2.351       .  S
H1092      O1093   0.962       .  S
O1093     Eu1111   2.361       .  S
O1093     Eu1113   2.350       .  S
O1094      C1117   1.293       .  A
O1094     Eu1110   2.462       .  S
O1095      C1118   1.294       .  A
O1095     Eu1111   2.474       .  S
O1096      C1119   1.291       .  A
O1096     Eu1112   2.459       .  S
O1097      C1120   1.291       .  A
O1097     Eu1113   2.452       .  S
O1098      C1121   1.292       .  A
O1098     Eu1113   2.458       .  S
O1099      C1122   1.289       .  A
O1099     Eu1112   2.444       .  S
O1100      C1123   1.292       .  A
O1100     Eu1570   2.458       .  S
O1101      C1124   1.291       .  A
O1101     Eu1114   2.455       .  S
O1102      C1123   1.291       .  A
O1102     Eu1112   2.456       .  S
O1103      C1124   1.291       .  A
O1103     Eu1113   2.454       .  S
O1104      C1119   1.287       .  A
O1104     Eu1566   2.433       .  S
O1105      C1122   1.291       .  A
O1105     Eu1567   2.458       .  S
O1106      C1121   1.286       .  A
O1106     Eu1111   2.424       .  S
O1107      C1120   1.291       .  A
O1107     Eu1110   2.452       .  S
O1108      C1117   1.290       .  A
O1108     Eu1114   2.449       .  S
O1109      C1118   1.289       .  A
O1109     Eu1114   2.447       .  S
Eu1110     O1560   2.455       .  S
Eu1110     O1547   2.356       .  S
Eu1110     O1128   2.355       .  S
Eu1110     O1572   2.347       .  S
Eu1111     O1561   2.442       .  S
Eu1111     O1541   2.342       .  S
Eu1111     O1115   2.346       .  S
Eu1111     O1582   2.346       .  S
Eu1112     O1126   2.355       .  S
Eu1112     O1116   2.350       .  S
Eu1113     O1115   2.348       .  S
Eu1113     O1128   2.356       .  S
Eu1114     O1556   2.450       .  S
Eu1114     O1115   2.344       .  S
Eu1114     O1582   2.353       .  S
Eu1114     O1128   2.350       .  S
Eu1114     O1572   2.351       .  S
O1116     Eu1566   2.347       .  S
O1116     Eu1570   2.348       .  S
C1117      C1709   1.483       .  S
C1118      C1719   1.487       .  S
C1119      C1143   1.467       .  S
C1120      C1153   1.479       .  S
C1121      C1163   1.473       .  S
C1122      C1133   1.475       .  S
C1123      C1213   1.483       .  S
C1124      C1243   1.481       .  S
H1125      O1126   0.960       .  S
O1126     Eu1567   2.349       .  S
O1126     Eu1570   2.353       .  S
H1127      O1128   0.962       .  S
C1129      C1130   1.404       .  A
C1129      C1134   1.395       .  A
C1129      H1135   1.083       .  S
C1130      C1131   1.405       .  A
C1131      C1132   1.395       .  A
C1131      H1136   1.083       .  S
C1132      C1133   1.404       .  A
C1132      H1137   1.083       .  S
C1133      C1134   1.406       .  A
C1134      H1138   1.083       .  S
C1139      C1140   1.403       .  A
C1139      C1144   1.395       .  A
C1139      H1145   1.083       .  S
C1140      C1141   1.405       .  A
C1141      C1142   1.395       .  A
C1141      H1146   1.083       .  S
C1142      C1143   1.402       .  A
C1142      H1147   1.083       .  S
C1143      C1144   1.404       .  A
C1144      H1148   1.084       .  S
C1149      C1150   1.407       .  A
C1149      C1154   1.394       .  A
C1149      H1155   1.083       .  S
C1150      C1151   1.404       .  A
C1151      C1152   1.395       .  A
C1151      H1156   1.083       .  S
C1152      C1153   1.407       .  A
C1152      H1157   1.083       .  S
C1153      C1154   1.404       .  A
C1154      H1158   1.083       .  S
C1159      C1160   1.404       .  A
C1159      C1164   1.391       .  A
C1159      H1165   1.083       .  S
C1160      C1161   1.407       .  A
C1161      C1162   1.395       .  A
C1161      H1166   1.083       .  S
C1162      C1163   1.406       .  A
C1162      H1167   1.083       .  S
C1163      C1164   1.403       .  A
C1164      H1168   1.083       .  S
C1169      C1170   1.403       .  A
C1169      C1174   1.393       .  A
C1169      H1175   1.083       .  S
C1170      C1171   1.408       .  A
C1171      C1172   1.395       .  A
C1171      H1176   1.083       .  S
C1172      C1173   1.404       .  A
C1172      H1177   1.083       .  S
C1173      C1174   1.406       .  A
C1174      H1178   1.083       .  S
C1179      C1180   1.405       .  A
C1179      C1184   1.396       .  A
C1179      H1185   1.083       .  S
C1180      C1181   1.408       .  A
C1181      C1182   1.399       .  A
C1181      H1186   1.083       .  S
C1182      C1183   1.406       .  A
C1182      H1187   1.083       .  S
C1183      C1184   1.406       .  A
C1184      H1188   1.083       .  S
C1189      C1190   1.407       .  A
C1189      C1194   1.399       .  A
C1189      H1195   1.083       .  S
C1190      C1191   1.407       .  A
C1191      C1192   1.399       .  A
C1191      H1196   1.083       .  S
C1192      C1193   1.407       .  A
C1192      H1197   1.083       .  S
C1193      C1194   1.407       .  A
C1194      H1198   1.083       .  S
C1199      C1200   1.405       .  A
C1199      C1204   1.397       .  A
C1199      H1205   1.083       .  S
C1200      C1201   1.407       .  A
C1201      C1202   1.397       .  A
C1201      H1206   1.083       .  S
C1202      C1203   1.407       .  A
C1202      H1207   1.083       .  S
C1203      C1204   1.406       .  A
C1204      H1208   1.083       .  S
C1209      C1210   1.406       .  A
C1209      C1214   1.396       .  A
C1209      H1215   1.083       .  S
C1210      C1211   1.407       .  A
C1211      C1212   1.400       .  A
C1211      H1216   1.083       .  S
C1212      C1213   1.407       .  A
C1212      H1217   1.083       .  S
C1213      C1214   1.405       .  A
C1214      H1218   1.083       .  S
C1219      C1220   1.406       .  A
C1219      C1224   1.397       .  A
C1219      H1225   1.083       .  S
C1220      C1221   1.406       .  A
C1221      C1222   1.398       .  A
C1221      H1226   1.083       .  S
C1222      C1223   1.408       .  A
C1222      H1227   1.083       .  S
C1223      C1224   1.405       .  A
C1224      H1228   1.083       .  S
C1229      C1230   1.408       .  A
C1229      C1234   1.401       .  A
C1229      H1235   1.083       .  S
C1230      C1231   1.405       .  A
C1231      C1232   1.398       .  A
C1231      H1236   1.083       .  S
C1232      C1233   1.408       .  A
C1232      H1237   1.083       .  S
C1233      C1234   1.407       .  A
C1234      H1238   1.083       .  S
C1239      C1240   1.405       .  A
C1239      C1244   1.397       .  A
C1239      H1245   1.083       .  S
C1240      C1241   1.406       .  A
C1241      C1242   1.395       .  A
C1241      H1246   1.083       .  S
C1242      C1243   1.405       .  A
C1242      H1247   1.083       .  S
C1243      C1244   1.407       .  A
C1244      H1248   1.083       .  S
C1249      C1250   1.406       .  A
C1249      C1254   1.397       .  A
C1249      H1255   1.083       .  S
C1250      C1251   1.407   1_554  A
C1251      C1252   1.399       .  A
C1251      H1256   1.083       .  S
C1252      C1253   1.407   1_556  A
C1252      H1257   1.083       .  S
C1253      C1573   1.484       .  S
C1253      C1254   1.406       .  A
C1254      H1258   1.083       .  S
C1259      C1260   1.407       .  A
C1259      C1264   1.397       .  A
C1259      H1265   1.083       .  S
C1260      C1261   1.405       .  A
C1261      C1262   1.397       .  A
C1261      H1266   1.083   1_556  S
C1262      C1263   1.408       .  A
C1262      H1267   1.083   1_556  S
C1263      C1574   1.482       .  S
C1263      C1264   1.404       .  A
C1264      H1268   1.083       .  S
C1269      C1270   1.409       .  A
C1269      C1274   1.400       .  A
C1269      H1275   1.083       .  S
C1270      C1271   1.406       .  A
C1271      C1272   1.399       .  A
C1271      H1276   1.083       .  S
C1272      C1273   1.408       .  A
C1272      H1277   1.083       .  S
C1273      C1543   1.488       .  S
C1273      C1274   1.406       .  A
C1274      H1278   1.083   1_554  S
C1279      C1280   1.406       .  A
C1279      C1284   1.397       .  A
C1279      H1285   1.083       .  S
C1280      C1281   1.405   1_556  A
C1281      C1282   1.396       .  A
C1281      H1286   1.083       .  S
C1282      C1283   1.406   1_554  A
C1282      H1287   1.083       .  S
C1283      C1542   1.483       .  S
C1283      C1284   1.407       .  A
C1284      H1288   1.083       .  S
C1289      C1290   1.406       .  A
C1289      C1294   1.398       .  A
C1289      H1295   1.083       .  S
C1290      C1291   1.405       .  A
C1291      C1292   1.397       .  A
C1291      H1296   1.083       .  S
C1292      C1293   1.406       .  A
C1292      H1297   1.083       .  S
C1293      C1294   1.408       .  A
C1294      H1298   1.083       .  S
C1299      C1300   1.406       .  A
C1299      C1304   1.400       .  A
C1299      H1305   1.083       .  S
C1300      C1301   1.408       .  A
C1301      C1302   1.398       .  A
C1301      H1306   1.083       .  S
C1302      C1303   1.405       .  A
C1302      H1307   1.083       .  S
C1303      C1304   1.407       .  A
C1304      H1308   1.083       .  S
C1309      C1310   1.409       .  A
C1309      C1314   1.401       .  A
C1309      H1315   1.083       .  S
C1310      C1311   1.406       .  A
C1311      C1312   1.400       .  A
C1311      H1316   1.083       .  S
C1312      C1313   1.408       .  A
C1312      H1317   1.083       .  S
C1313      C1314   1.407       .  A
C1314      H1318   1.083       .  S
C1319      C1320   1.406       .  A
C1319      C1324   1.396       .  A
C1319      H1325   1.083       .  S
C1320      C1321   1.406       .  A
C1321      C1322   1.396       .  A
C1321      H1326   1.083       .  S
C1322      C1323   1.406       .  A
C1322      H1327   1.083       .  S
C1323      C1324   1.406       .  A
C1324      H1328   1.083       .  S
C1329      C3154   1.406       .  A
C1329      C1334   1.394       .  A
C1329      H1335   1.083       .  S
C1330      C3153   1.406   1_655  A
C1330      C1331   1.404       .  A
C1331      C1332   1.394       .  A
C1331      H1336   1.083       .  S
C1332      C1333   1.406   1_655  A
C1332      H1337   1.083       .  S
C1333      C3158   1.405       .  A
C1334      C3157   1.404       .  A
C1334      H1338   1.083       .  S
C1339      C1340   1.405       .  A
C1339      C1344   1.397       .  A
C1339      H1345   1.083       .  S
C1340      C3165   1.405   1_655  A
C1341      C3164   1.405       .  A
C1341      C1342   1.397       .  A
C1341      H1346   1.083       .  S
C1342      C3167   1.406       .  A
C1342      H1347   1.083       .  S
C1343      C3166   1.406       .  A
C1343      C1344   1.405   1_455  A
C1344      H1348   1.083       .  S
C1349      C3174   1.405       .  A
C1349      C1354   1.398       .  A
C1349      H1355   1.083       .  S
C1350      C3173   1.405       .  A
C1350      C1351   1.406   1_655  A
C1351      C1352   1.395       .  A
C1351      H1356   1.083       .  S
C1352      C1353   1.405   1_455  A
C1352      H1357   1.083       .  S
C1353      C3178   1.408       .  A
C1354      C3177   1.408       .  A
C1354      H1358   1.083       .  S
C1359      C1360   1.404   1_655  A
C1359      C1364   1.393       .  A
C1359      H1365   1.083       .  S
C1360      C3185   1.406       .  A
C1361      C3184   1.406       .  A
C1361      C1362   1.394       .  A
C1361      H1366   1.083       .  S
C1362      C3187   1.405       .  A
C1362      H1367   1.083       .  S
C1363      C3186   1.405       .  A
C1363      C1364   1.406   1_455  A
C1364      H1368   1.083       .  S
O1369      C1380   1.291       .  A
O1369     Eu1405   2.456       .  S
O1370      C1381   1.291   1_655  A
O1370     Eu1404   2.451       .  S
O1371      C1382   1.292       .  A
O1371     Eu1377   2.459       .  S
O1372      C1383   1.293       .  A
O1372     Eu3201   2.466       .  S
O1373      C1383   1.289       .  A
O1373     Eu1407   2.444       .  S
O1374      C1382   1.292       .  A
O1374     Eu1406   2.460       .  S
O1375      C1381   1.290       .  A
O1376      C1380   1.290       .  A
O1376     Eu1377   2.453       .  S
Eu1377     O3196   2.468   1_455  S
Eu1377     O3211   2.348   1_455  S
Eu1377     O1379   2.347       .  S
Eu1377     O2746   2.345   1_455  S
O1378     Eu2745   2.350       .  S
O1378     Eu3228   2.351       .  S
O1379     Eu1405   2.351       .  S
O1379     Eu1406   2.352       .  S
C1380      C1816   1.472       .  S
C1381      C1786   1.476       .  S
C1382      C1736   1.485       .  S
C1383      C1716   1.484       .  S
H1384      O1385   0.962       .  S
O1385     Eu1404   2.352   1_455  S
H1386      O1387   0.961       .  S
O1387     Eu3201   2.348       .  S
O1387     Eu3229   2.348       .  S
O1387     Eu1407   2.350       .  S
O1388      C1411   1.292       .  A
O1389      C1412   1.290       .  A
O1390      C1413   1.289       .  A
O1391      C1414   1.290       .  A
O1392      C1415   1.289       .  A
O1392     Eu1407   2.446       .  S
O1393      C1416   1.290       .  A
O1393     Eu1406   2.446       .  S
O1394      C1417   1.292       .  A
O1394     Eu1408   2.461       .  S
O1395      C1418   1.291       .  A
O1395     Eu3232   2.453       .  S
O1396      C1417   1.293       .  A
O1397      C1418   1.291       .  A
O1398      C1413   1.293       .  A
O1398     Eu1404   2.465   1_455  S
O1399      C1416   1.291       .  A
O1399     Eu1405   2.452       .  S
O1400      C1415   1.294       .  A
O1400     Eu3229   2.472       .  S
O1401      C1414   1.295       .  A
O1401     Eu3228   2.475       .  S
O1402      C1411   1.288   1_655  A
O1403      C1412   1.290       .  A
O1403     Eu1408   2.448       .  S
Eu1404     O3225   2.476       .  S
Eu1404     O3202   2.351       .  S
Eu1404     O2334   2.351       .  S
Eu1405     O3224   2.470   1_455  S
Eu1405     O3211   2.349   1_455  S
Eu1405     O2321   2.348   1_455  S
Eu1408     O3219   2.454   1_455  S
Eu1408     O3233   2.354   1_455  S
Eu1408     O1420   2.354       .  S
Eu1408     O2790   2.353   1_455  S
O1409     Eu2317   2.350   1_565  S
O1409     Eu3232   2.354       .  S
C1411      C1799   1.471       .  S
C1412      C1806   1.475       .  S
C1413      C1756   1.483       .  S
C1414      C1746   1.487       .  S
C1415      C1776   1.486       .  S
C1416      C1766   1.477       .  S
C1417      C1726   1.489       .  S
C1418      C1706   1.482       .  S
H1419      O1420   0.960       .  S
H1421      O1422   0.962       .  S
O1422     Eu2316   2.350       .  S
O1422     Eu2776   2.353   1_556  S
O1423      C1434   1.291       .  A
O1423     Eu1459   2.452       .  S
O1424      C1435   1.288   1_455  A
O1424     Eu1458   2.433   1_455  S
O1425      C1436   1.293       .  A
O1425     Eu1431   2.465       .  S
O1426      C1437   1.293       .  A
O1426     Eu3255   2.468       .  S
O1427      C1437   1.291       .  A
O1427     Eu1461   2.454       .  S
O1428      C1436   1.291       .  A
O1428     Eu1460   2.453       .  S
O1429      C1435   1.291       .  A
O1429     Eu1431   2.451   1_655  S
O1430      C1434   1.290       .  A
O1430     Eu1431   2.451       .  S
Eu1431     O3250   2.468   1_455  S
Eu1431     O3265   2.351   1_455  S
Eu1431     O1433   2.350       .  S
Eu1431     O3256   2.348   1_455  S
Eu1431     O1439   2.350       .  S
O1432     Eu3255   2.348       .  S
O1432     Eu1461   2.346       .  S
O1432     Eu3282   2.346       .  S
O1433     Eu1459   2.344       .  S
O1433     Eu1460   2.346       .  S
C1434      C1819   1.470       .  S
C1435      C1789   1.473       .  S
C1436      C1646   1.485       .  S
C1437      C1626   1.486       .  S
H1438      O1439   0.962       .  S
O1439     Eu1460   2.355       .  S
O1439     Eu1458   2.351   1_455  S
H1440      O1441   0.962       .  S
O1441     Eu3255   2.351       .  S
O1441     Eu3283   2.356       .  S
O1441     Eu1461   2.353       .  S
O1442      C1465   1.288       .  A
O1442     Eu1458   2.434   1_455  S
O1443      C1466   1.291       .  A
O1443     Eu1459   2.449   1_655  S
O1444      C1467   1.290       .  A
O1444     Eu1460   2.445       .  S
O1445      C1468   1.290       .  A
O1445     Eu1461   2.450       .  S
O1446      C1469   1.290       .  A
O1446     Eu1461   2.446       .  S
O1447      C1470   1.291       .  A
O1447     Eu1460   2.458       .  S
O1448      C1471   1.291       .  A
O1448     Eu1462   2.456   1_455  S
O1449      C1472   1.292       .  A
O1449     Eu3286   2.461       .  S
O1450      C1471   1.291       .  A
O1450     Eu1460   2.455       .  S
O1451      C1472   1.291       .  A
O1451     Eu1461   2.454       .  S
O1452      C1467   1.293       .  A
O1452     Eu1458   2.466   1_455  S
O1453      C1470   1.295       .  A
O1453     Eu1459   2.478       .  S
O1454      C1469   1.292       .  A
O1454     Eu3283   2.460       .  S
O1455      C1468   1.294       .  A
O1455     Eu3282   2.473       .  S
O1456      C1465   1.292       .  A
O1456     Eu1462   2.460   1_455  S
O1457      C1466   1.290       .  A
O1457     Eu1462   2.449       .  S
Eu1458     O3279   2.474       .  S
Eu1458     O3256   2.345       .  S
Eu1458     O3300   2.350       .  S
Eu1458     O1464   2.349   1_655  S
Eu1459     O3278   2.460   1_455  S
Eu1459     O3265   2.356   1_455  S
Eu1459     O3287   2.354   1_455  S
Eu1459     O1474   2.353       .  S
Eu1460     O1474   2.350       .  S
Eu1460     O1464   2.349       .  S
Eu1461     O1463   2.352       .  S
Eu1461     O1476   2.353       .  S
Eu1462     O3273   2.460       .  S
Eu1462     O3287   2.351       .  S
Eu1462     O1474   2.362   1_655  S
Eu1462     O3300   2.352       .  S
Eu1462     O1464   2.344   1_655  S
O1463     Eu3283   2.353       .  S
O1463     Eu3286   2.351       .  S
C1465      C1796   1.470       .  S
C1466      C1809   1.476   1_655  S
C1467      C1686   1.483       .  S
C1468      C1696   1.487       .  S
C1469      C1666   1.481       .  S
C1470      C1676   1.491       .  S
C1471      C1656   1.482       .  S
C1472      C1636   1.484       .  S
H1473      O1474   0.961       .  S
H1475      O1476   0.961       .  S
O1476     Eu3282   2.350       .  S
O1476     Eu3286   2.352       .  S
O1477      C1488   1.290       .  A
O1477     Eu1513   2.448       .  S
O1478      C1489   1.288       .  A
O1478     Eu1512   2.435       .  S
O1479      C1490   1.289       .  A
O1479     Eu1485   2.440   1_565  S
O1480      C1491   1.292       .  A
O1481      C1491   1.289       .  A
O1481     Eu1515   2.441       .  S
O1482      C1490   1.292       .  A
O1482     Eu1514   2.461       .  S
O1483      C1489   1.292       .  A
O1483     Eu1485   2.457       .  S
O1484      C1488   1.293       .  A
O1484     Eu1485   2.465       .  S
Eu1485     O1487   2.350   1_545  S
Eu1485     O1493   2.354   1_545  S
O1486     Eu1515   2.351       .  S
O1487     Eu1513   2.346   1_565  S
O1487     Eu1514   2.354       .  S
C1490      C1596   1.471       .  S
C1491      C1586   1.478       .  S
H1492      O1493   0.963       .  S
O1493     Eu1514   2.352       .  S
O1493     Eu1512   2.349   1_565  S
H1494      O1495   0.961       .  S
O1495     Eu1515   2.349       .  S
O1496      C1519   1.288       .  A
O1496     Eu1512   2.440   1_565  S
O1497      C1520   1.290   1_545  A
O1497     Eu1513   2.446       .  S
O1498      C1521   1.292       .  A
O1498     Eu1514   2.460       .  S
O1499      C1522   1.291       .  A
O1499     Eu1515   2.454       .  S
O1500      C1523   1.293       .  A
O1500     Eu1515   2.467       .  S
O1501      C1524   1.291       .  A
O1501     Eu1514   2.455       .  S
O1502      C1525   1.290       .  A
O1502     Eu1516   2.446   1_565  S
O1503      C1526   1.288       .  A
O1504      C1525   1.294       .  A
O1504     Eu1514   2.469       .  S
O1505      C1526   1.291       .  A
O1505     Eu1515   2.453       .  S
O1506      C1521   1.289       .  A
O1506     Eu1512   2.442   1_565  S
O1507      C1524   1.293       .  A
O1507     Eu1513   2.465   1_565  S
O1508      C1523   1.290       .  A
O1509      C1522   1.294       .  A
O1510      C1519   1.293   1_545  A
O1510     Eu1516   2.466       .  S
O1511      C1520   1.291       .  A
O1511     Eu1516   2.455   1_565  S
Eu1512     O1518   2.343   1_545  S
Eu1513     O1528   2.350   1_545  S
Eu1514     O1528   2.351       .  S
Eu1514     O1518   2.349       .  S
Eu1515     O1517   2.345       .  S
Eu1515     O1530   2.354       .  S
Eu1516     O1528   2.352   1_545  S
Eu1516     O1518   2.350   1_545  S
C1521      C1659   1.480       .  S
C1522      C1649   1.485       .  S
C1523      C1629   1.485       .  S
C1524      C1639   1.485       .  S
C1525      C1606   1.476       .  S
C1526      C1616   1.477       .  S
H1527      O1528   0.962       .  S
H1529      O1530   0.960       .  S
O1531      C1542   1.291       .  A
O1531     Eu1567   2.453   1_556  S
O1532      C1543   1.293   1_556  A
O1532     Eu1566   2.464   1_556  S
O1533      C1544   1.292       .  A
O1534      C1545   1.291       .  A
O1534     Eu1539   2.455       .  S
O1535      C1545   1.291       .  A
O1535     Eu1569   2.456       .  S
O1536      C1544   1.292       .  A
O1536     Eu1568   2.459       .  S
O1537      C1543   1.292   1_556  A
O1537     Eu1539   2.457       .  S
O1538      C1542   1.292       .  A
O1538     Eu1539   2.465       .  S
Eu1539     O1549   2.346       .  S
Eu1539     O1540   2.348       .  S
O1540     Eu1569   2.345       .  S
O1540     Eu1566   2.350   1_556  S
O1541     Eu1568   2.343       .  S
C1544      C1679   1.487       .  S
C1545      C1689   1.483       .  S
H1546      O1547   0.960       .  S
O1547     Eu1568   2.353       .  S
H1548      O1549   0.962       .  S
O1549     Eu1567   2.355   1_556  S
O1549     Eu1569   2.352       .  S
O1550      C1573   1.292       .  A
O1550     Eu1566   2.465       .  S
O1551      C1574   1.294       .  A
O1551     Eu1567   2.469   1_556  S
O1552      C1575   1.290       .  A
O1552     Eu1568   2.453       .  S
O1553      C1576   1.293       .  A
O1553     Eu1569   2.468       .  S
O1554      C1577   1.292       .  A
O1554     Eu1569   2.459       .  S
O1555      C1578   1.290       .  A
O1555     Eu1568   2.447       .  S
O1556      C1579   1.291       .  A
O1557      C1580   1.292       .  A
O1557     Eu1570   2.460   1_556  S
O1558      C1579   1.291       .  A
O1558     Eu1568   2.455       .  S
O1559      C1580   1.291       .  A
O1559     Eu1569   2.456       .  S
O1560      C1575   1.291       .  A
O1561      C1578   1.289       .  A
O1562      C1577   1.291       .  A
O1562     Eu1567   2.451   1_556  S
O1563      C1576   1.288       .  A
O1563     Eu1566   2.437   1_556  S
O1564      C1573   1.290       .  A
O1564     Eu1570   2.449       .  S
O1565      C1574   1.288       .  A
O1565     Eu1570   2.438   1_556  S
Eu1566     O1584   2.354   1_554  S
Eu1567     O1571   2.348   1_554  S
Eu1568     O1582   2.356       .  S
Eu1568     O1572   2.351       .  S
Eu1569     O1571   2.348       .  S
Eu1569     O1584   2.355       .  S
Eu1570     O1571   2.345   1_554  S
Eu1570     O1584   2.351   1_554  S
C1575      C1599   1.473       .  S
C1576      C1609   1.473       .  S
C1577      C1619   1.480       .  S
C1578      C1589   1.475       .  S
C1579      C1669   1.481       .  S
C1580      C1699   1.485       .  S
H1581      O1582   0.961       .  S
H1583      O1584   0.962       .  S
C1585      C1586   1.404       .  A
C1585      C1590   1.396       .  A
C1585      H1591   1.083       .  S
C1586      C1587   1.407       .  A
C1587      C1588   1.394       .  A
C1587      H1592   1.083       .  S
C1588      C1589   1.403       .  A
C1588      H1593   1.083       .  S
C1589      C1590   1.406       .  A
C1590      H1594   1.083       .  S
C1595      C1596   1.404       .  A
C1595      C1600   1.396       .  A
C1595      H1601   1.083       .  S
C1596      C1597   1.403       .  A
C1597      C1598   1.396       .  A
C1597      H1602   1.083       .  S
C1598      C1599   1.404       .  A
C1598      H1603   1.083       .  S
C1599      C1600   1.404       .  A
C1600      H1604   1.083       .  S
C1605      C1606   1.406       .  A
C1605      C1610   1.398       .  A
C1605      H1611   1.083       .  S
C1606      C1607   1.403       .  A
C1607      C1608   1.396       .  A
C1607      H1612   1.083       .  S
C1608      C1609   1.403       .  A
C1608      H1613   1.083       .  S
C1609      C1610   1.405       .  A
C1610      H1614   1.083       .  S
C1615      C1616   1.407       .  A
C1615      C1620   1.396       .  A
C1615      H1621   1.083       .  S
C1616      C1617   1.404       .  A
C1617      C1618   1.395       .  A
C1617      H1622   1.083       .  S
C1618      C1619   1.406       .  A
C1618      H1623   1.083       .  S
C1619      C1620   1.406       .  A
C1620      H1624   1.083       .  S
C1625      C1626   1.406       .  A
C1625      C1630   1.399       .  A
C1625      H1631   1.083       .  S
C1626      C1627   1.408       .  A
C1627      C1628   1.398       .  A
C1627      H1632   1.083       .  S
C1628      C1629   1.405       .  A
C1628      H1633   1.083       .  S
C1629      C1630   1.408       .  A
C1630      H1634   1.083       .  S
C1635      C1636   1.406       .  A
C1635      C1640   1.397       .  A
C1635      H1641   1.083       .  S
C1636      C1637   1.407       .  A
C1637      C1638   1.398       .  A
C1637      H1642   1.083       .  S
C1638      C1639   1.407       .  A
C1638      H1643   1.083       .  S
C1639      C1640   1.406       .  A
C1640      H1644   1.083       .  S
C1645      C1646   1.407       .  A
C1645      C1650   1.400       .  A
C1645      H1651   1.083       .  S
C1646      C1647   1.406       .  A
C1647      C1648   1.397       .  A
C1647      H1652   1.083       .  S
C1648      C1649   1.406       .  A
C1648      H1653   1.083       .  S
C1649      C1650   1.408       .  A
C1650      H1654   1.083       .  S
C1655      C1656   1.405       .  A
C1655      C1660   1.397       .  A
C1655      H1661   1.083       .  S
C1656      C1657   1.407       .  A
C1657      C1658   1.395       .  A
C1657      H1662   1.083       .  S
C1658      C1659   1.403       .  A
C1658      H1663   1.083       .  S
C1659      C1660   1.408       .  A
C1660      H1664   1.083       .  S
C1665      C1666   1.405       .  A
C1665      C1670   1.395       .  A
C1665      H1671   1.083       .  S
C1666      C1667   1.407       .  A
C1667      C1668   1.396       .  A
C1667      H1672   1.083       .  S
C1668      C1669   1.406       .  A
C1668      H1673   1.083       .  S
C1669      C1670   1.406       .  A
C1670      H1674   1.083       .  S
C1675      C1676   1.409       .  A
C1675      C1680   1.400       .  A
C1675      H1681   1.083       .  S
C1676      C1677   1.407       .  A
C1677      C1678   1.399       .  A
C1677      H1682   1.083       .  S
C1678      C1679   1.406       .  A
C1678      H1683   1.083       .  S
C1679      C1680   1.407       .  A
C1680      H1684   1.083       .  S
C1685      C1686   1.408       .  A
C1685      C1690   1.398       .  A
C1685      H1691   1.083       .  S
C1686      C1687   1.405       .  A
C1687      C1688   1.396       .  A
C1687      H1692   1.083       .  S
C1688      C1689   1.406       .  A
C1688      H1693   1.083       .  S
C1689      C1690   1.406       .  A
C1690      H1694   1.083       .  S
C1695      C1696   1.406       .  A
C1695      C1700   1.398       .  A
C1695      H1701   1.083       .  S
C1696      C1697   1.408       .  A
C1697      C1698   1.399       .  A
C1697      H1702   1.083       .  S
C1698      C1699   1.407       .  A
C1698      H1703   1.083       .  S
C1699      C1700   1.407       .  A
C1700      H1704   1.083       .  S
C1705      C1706   1.406       .  A
C1705      C1710   1.394       .  A
C1705      H1711   1.083       .  S
C1706      C1707   1.406       .  A
C1707      C1708   1.399       .  A
C1707      H1712   1.083       .  S
C1708      C1709   1.408       .  A
C1708      H1713   1.083       .  S
C1709      C1710   1.404       .  A
C1710      H1714   1.083       .  S
C1715      C1716   1.408       .  A
C1715      C1720   1.398       .  A
C1715      H1721   1.083       .  S
C1716      C1717   1.404       .  A
C1717      C1718   1.398       .  A
C1717      H1722   1.083       .  S
C1718      C1719   1.409       .  A
C1718      H1723   1.083       .  S
C1719      C1720   1.405       .  A
C1720      H1724   1.083       .  S
C1725      C1726   1.408       .  A
C1725      C1730   1.401       .  A
C1725      H1731   1.083       .  S
C1726      C1727   1.407       .  A
C1727      C1728   1.397       .  A
C1727      H1732   1.083       .  S
C1728      C1729   1.406       .  A
C1728      H1733   1.083       .  S
C1729      C1730   1.407       .  A
C1730      H1734   1.083       .  S
C1735      C1736   1.407       .  A
C1735      C1740   1.397       .  A
C1735      H1741   1.083       .  S
C1736      C1737   1.407       .  A
C1737      C1738   1.399       .  A
C1737      H1742   1.083       .  S
C1738      C1739   1.408       .  A
C1738      H1743   1.083       .  S
C1739      C1740   1.405       .  A
C1740      H1744   1.083       .  S
C1745      C1746   1.409       .  A
C1745      C1750   1.398       .  A
C1745      H1751   1.083       .  S
C1746      C1747   1.405       .  A
C1747      C1748   1.397       .  A
C1747      H1752   1.083       .  S
C1748      C1749   1.407       .  A
C1748      H1753   1.083       .  S
C1749      C1750   1.405       .  A
C1750      H1754   1.083       .  S
C1755      C1756   1.405       .  A
C1755      C1760   1.396       .  A
C1755      H1761   1.083       .  S
C1756      C1757   1.408       .  A
C1757      C1758   1.399       .  A
C1757      H1762   1.083       .  S
C1758      C1759   1.408       .  A
C1758      H1763   1.083       .  S
C1759      C1760   1.405       .  A
C1760      H1764   1.083       .  S
C1765      C1766   1.406       .  A
C1765      C1770   1.395       .  A
C1765      H1771   1.083       .  S
C1766      C1767   1.405       .  A
C1767      C1768   1.393       .  A
C1767      H1772   1.083       .  S
C1768      C1769   1.405       .  A
C1768      H1773   1.083       .  S
C1769      C1770   1.406       .  A
C1770      H1774   1.083       .  S
C1775      C1776   1.405       .  A
C1775      C1780   1.398       .  A
C1775      H1781   1.083       .  S
C1776      C1777   1.409       .  A
C1777      C1778   1.399       .  A
C1777      H1782   1.083       .  S
C1778      C1779   1.406       .  A
C1778      H1783   1.083       .  S
C1779      C1780   1.407       .  A
C1780      H1784   1.083       .  S
C1785      C3610   1.405       .  A
C1785      C1790   1.394       .  A
C1785      H1791   1.083       .  S
C1786      C3609   1.405       .  A
C1786      C1787   1.405   1_455  A
C1787      C1788   1.394       .  A
C1787      H1792   1.083       .  S
C1788      C1789   1.404       .  A
C1788      H1793   1.083       .  S
C1789      C3614   1.406   1_655  A
C1790      C3613   1.406       .  A
C1790      H1794   1.083       .  S
C1795      C1796   1.404   1_655  A
C1795      C1800   1.395       .  A
C1795      H1801   1.083       .  S
C1796      C3621   1.403       .  A
C1797      C3620   1.403       .  A
C1797      C1798   1.394       .  A
C1797      H1802   1.083       .  S
C1798      C3623   1.403       .  A
C1798      H1803   1.083       .  S
C1799      C3622   1.403       .  A
C1799      C1800   1.405   1_455  A
C1800      H1804   1.083       .  S
C1805      C3630   1.406       .  A
C1805      C1810   1.396       .  A
C1805      H1811   1.083       .  S
C1806      C3629   1.405       .  A
C1806      C1807   1.404   1_455  A
C1807      C1808   1.392       .  A
C1807      H1812   1.083       .  S
C1808      C1809   1.404   1_655  A
C1808      H1813   1.083       .  S
C1809      C3634   1.406       .  A
C1810      C3633   1.406       .  A
C1810      H1814   1.083       .  S
C1815      C1816   1.404   1_655  A
C1815      C1820   1.396       .  A
C1815      H1821   1.083       .  S
C1816      C3641   1.403       .  A
C1817      C3640   1.403       .  A
C1817      C1818   1.397       .  A
C1817      H1822   1.083       .  S
C1818      C3643   1.404       .  A
C1818      H1823   1.083       .  S
C1819      C3642   1.404       .  A
C1819      C1820   1.403   1_455  A
C1820      H1824   1.083       .  S
O1825      C1836   1.288       .  A
O1825     Eu1861   2.437       .  S
O1826      C1837   1.291       .  A
O1826     Eu1860   2.455       .  S
O1827      C1838   1.293       .  A
O1827     Eu1833   2.465   1_554  S
O1828      C1839   1.292       .  A
O1829      C1839   1.290       .  A
O1829     Eu1863   2.450       .  S
O1830      C1838   1.291       .  A
O1830     Eu1862   2.455   1_554  S
O1831      C1837   1.289       .  A
O1831     Eu2289   2.440       .  S
O1832      C1836   1.291       .  A
O1832     Eu1833   2.453   1_554  S
Eu1833     O2287   2.444       .  S
Eu1833     O1835   2.345   1_556  S
Eu1833     O2297   2.357       .  S
O1834     Eu2319   2.350   1_545  S
O1835     Eu1861   2.349       .  S
O1835     Eu1862   2.349   1_554  S
C1836      C2272   1.476       .  S
C1837      C2242   1.474       .  S
C1838      C2192   1.486       .  S
C1839      C2172   1.482       .  S
H1840      O1841   0.962       .  S
O1841     Eu2289   2.349       .  S
O1841     Eu2318   2.353       .  S
O1841     Eu1860   2.350       .  S
H1842      O1843   0.960       .  S
O1843     Eu1863   2.347   1_554  S
O1844      C1867   1.289       .  A
O1844     Eu2772   2.444       .  S
O1845      C1868   1.289       .  A
O1845     Eu2773   2.442       .  S
O1846      C1869   1.291       .  A
O1846     Eu2318   2.453       .  S
O1847      C1870   1.293       .  A
O1847     Eu2319   2.462       .  S
O1848      C1871   1.291       .  A
O1848     Eu1863   2.455   1_554  S
O1849      C1872   1.291       .  A
O1849     Eu1862   2.453   1_554  S
O1850      C1873   1.294       .  A
O1850     Eu1864   2.469   1_556  S
O1851      C1874   1.294       .  A
O1852      C1873   1.290       .  A
O1852     Eu2774   2.448   1_556  S
O1853      C1874   1.291   1_556  A
O1853     Eu2775   2.452       .  S
O1854      C1869   1.293   1_565  A
O1854     Eu1860   2.463   1_565  S
O1855      C1872   1.294       .  A
O1855     Eu1861   2.468       .  S
O1856      C1871   1.293       .  A
O1857      C1870   1.294       .  A
O1858      C1867   1.293       .  A
O1858     Eu2320   2.464       .  S
O1859      C1868   1.291       .  A
O1859     Eu1864   2.455       .  S
Eu1860     O2756   2.446   1_545  S
Eu1860     O2778   2.352   1_545  S
Eu1861     O2757   2.453   1_545  S
Eu1861     O2788   2.353   1_545  S
Eu1862     O2302   2.463       .  S
Eu1862     O2764   2.461   1_546  S
Eu1862     O2297   2.351       .  S
Eu1862     O2788   2.358   1_546  S
Eu1862     O3234   2.346   1_545  S
Eu1863     O2303   2.445       .  S
Eu1863     O2765   2.459   1_545  S
Eu1863     O2290   2.350       .  S
Eu1863     O2777   2.347   1_546  S
Eu1863     O3246   2.350   1_545  S
Eu1864     O2314   2.444   1_554  S
Eu1864     O1876   2.348       .  S
Eu1864     O2322   2.348   1_554  S
O1865     Eu2775   2.352   1_554  S
O1866     Eu2772   2.345       .  S
O1866     Eu3230   2.344       .  S
O1866     Eu2320   2.351       .  S
C1867      C2255   1.477       .  S
C1868      C2262   1.476       .  S
C1869      C2212   1.485   1_545  S
C1870      C2202   1.490       .  S
C1871      C2232   1.485       .  S
C1872      C2222   1.485       .  S
C1873      C2182   1.484       .  S
C1874      C2162   1.485       .  S
H1875      O1876   0.961       .  S
O1876     Eu2773   2.346       .  S
O1876     Eu2774   2.346       .  S
H1877      O1878   0.962       .  S
O1878     Eu3231   2.353       .  S
O1879      C1890   1.290       .  A
O1879     Eu1915   2.450       .  S
O1880      C1891   1.290       .  A
O1880     Eu1914   2.451       .  S
O1881      C1892   1.294       .  A
O1881     Eu1887   2.471       .  S
O1882      C1893   1.291       .  A
O1883      C1893   1.294       .  A
O1883     Eu1917   2.472       .  S
O1884      C1892   1.288       .  A
O1884     Eu1916   2.437       .  S
O1885      C1891   1.291       .  A
O1885     Eu1887   2.458       .  S
O1886      C1890   1.290       .  A
O1886     Eu1887   2.444       .  S
Eu1887     O1889   2.352       .  S
Eu1887     O1895   2.347       .  S
O1888     Eu1917   2.352       .  S
O1889     Eu1915   2.352       .  S
O1889     Eu1916   2.350       .  S
C1890      C2275   1.476       .  S
C1891      C2245   1.476       .  S
C1892      C2102   1.478       .  S
C1893      C2082   1.488       .  S
H1894      O1895   0.962       .  S
O1895     Eu1916   2.358       .  S
O1895     Eu1914   2.353       .  S
H1896      O1897   0.962       .  S
O1897     Eu1917   2.350       .  S
O1898      C1921   1.290       .  A
O1898     Eu1914   2.447       .  S
O1899      C1922   1.292       .  A
O1899     Eu1915   2.461       .  S
O1900      C1923   1.291       .  A
O1900     Eu1916   2.453       .  S
O1901      C1924   1.293       .  A
O1901     Eu1917   2.467       .  S
O1902      C1925   1.292       .  A
O1902     Eu1917   2.463       .  S
O1903      C1926   1.291       .  A
O1903     Eu1916   2.458       .  S
O1904      C1927   1.293       .  A
O1904     Eu1918   2.467       .  S
O1905      C1928   1.293       .  A
O1906      C1927   1.291       .  A
O1906     Eu1916   2.457       .  S
O1907      C1928   1.291       .  A
O1907     Eu1917   2.451       .  S
O1908      C1923   1.292       .  A
O1908     Eu1914   2.461       .  S
O1909      C1926   1.292       .  A
O1909     Eu1915   2.459       .  S
O1910      C1925   1.292       .  A
O1911      C1924   1.292       .  A
O1912      C1921   1.291       .  A
O1912     Eu1918   2.452       .  S
O1913      C1922   1.290       .  A
O1913     Eu1918   2.447       .  S
Eu1914     O1920   2.356       .  S
Eu1915     O1930   2.351       .  S
Eu1916     O1930   2.348       .  S
Eu1916     O1920   2.349       .  S
Eu1917     O1919   2.354       .  S
Eu1917     O1932   2.353       .  S
Eu1918     O1930   2.351       .  S
Eu1918     O1920   2.348       .  S
C1921      C2252   1.475       .  S
C1922      C2265   1.478       .  S
C1923      C2142   1.484       .  S
C1924      C2152   1.490       .  S
C1925      C2122   1.487       .  S
C1926      C2132   1.483       .  S
C1927      C2112   1.488       .  S
C1928      C2092   1.482       .  S
H1929      O1930   0.961       .  S
H1931      O1932   0.961       .  S
O1933      C1944   1.291       .  A
O1933     Eu1969   2.451       .  S
O1934      C1945   1.293       .  A
O1934     Eu1968   2.468       .  S
O1935      C1946   1.290       .  A
O1935     Eu1941   2.450       .  S
O1936      C1947   1.291       .  A
O1936     Eu2853   2.456       .  S
O1937      C1947   1.290       .  A
O1937     Eu1971   2.448       .  S
O1938      C1946   1.290       .  A
O1938     Eu1970   2.450       .  S
O1939      C1945   1.293       .  A
O1939     Eu1941   2.468       .  S
O1940      C1944   1.291       .  A
O1940     Eu1941   2.455       .  S
Eu1941     O2848   2.444       .  S
Eu1941     O2863   2.356       .  S
Eu1941     O1943   2.354       .  S
Eu1941     O2854   2.349       .  S
Eu1941     O1949   2.349       .  S
O1942     Eu2853   2.345       .  S
O1942     Eu1971   2.357       .  S
O1942     Eu2880   2.351       .  S
O1943     Eu1969   2.352       .  S
O1943     Eu1970   2.350       .  S
C1944      C3147   1.480       .  S
C1945      C3137   1.491       .  S
C1946      C2052   1.471       .  S
C1947      C2042   1.479       .  S
H1948      O1949   0.963       .  S
O1949     Eu1970   2.355       .  S
O1949     Eu1968   2.350       .  S
H1950      O1951   0.960       .  S
O1951     Eu2853   2.352       .  S
O1951     Eu2881   2.353   1_545  S
O1951     Eu1971   2.350       .  S
O1952      C1975   1.291       .  A
O1952     Eu1968   2.455       .  S
O1953      C1976   1.293       .  A
O1953     Eu1969   2.465       .  S
O1954      C1977   1.293       .  A
O1954     Eu1970   2.464       .  S
O1955      C1978   1.292       .  A
O1955     Eu1971   2.461       .  S
O1956      C1979   1.292       .  A
O1956     Eu1971   2.462       .  S
O1957      C1980   1.291       .  A
O1957     Eu1970   2.456       .  S
O1958      C1981   1.289       .  A
O1958     Eu1972   2.442       .  S
O1959      C1982   1.290       .  A
O1959     Eu2884   2.449   1_545  S
O1960      C1981   1.292       .  A
O1960     Eu1970   2.457       .  S
O1961      C1982   1.291       .  A
O1961     Eu1971   2.457       .  S
O1962      C1977   1.291       .  A
O1962     Eu1968   2.454       .  S
O1963      C1980   1.292       .  A
O1963     Eu1969   2.458       .  S
O1964      C1979   1.292       .  A
O1964     Eu2881   2.461   1_545  S
O1965      C1978   1.291       .  A
O1965     Eu2880   2.451       .  S
O1966      C1975   1.292       .  A
O1966     Eu1972   2.455       .  S
O1967      C1976   1.291       .  A
O1967     Eu1972   2.459       .  S
Eu1968     O2877   2.462       .  S
Eu1968     O2854   2.346       .  S
Eu1968     O2898   2.358       .  S
Eu1968     O1974   2.349       .  S
Eu1969     O2876   2.441       .  S
Eu1969     O2863   2.355       .  S
Eu1969     O2885   2.348       .  S
Eu1969     O1984   2.344       .  S
Eu1970     O1984   2.353       .  S
Eu1970     O1974   2.346       .  S
Eu1971     O1973   2.348       .  S
Eu1971     O1986   2.352       .  S
Eu1972     O2871   2.444       .  S
Eu1972     O2885   2.343       .  S
Eu1972     O1984   2.349       .  S
Eu1972     O2898   2.353       .  S
Eu1972     O1974   2.349       .  S
O1973     Eu2881   2.351   1_545  S
O1973     Eu2884   2.350   1_545  S
C1975      C3127   1.482       .  S
C1976      C3117   1.486       .  S
C1977      C2115   1.486       .  S
C1978      C2105   1.478       .  S
C1979      C2085   1.487       .  S
C1980      C2095   1.482       .  S
C1981      C2062   1.476       .  S
C1982      C2072   1.479       .  S
H1983      O1984   0.961       .  S
H1985      O1986   0.960       .  S
O1986     Eu2880   2.362       .  S
O1986     Eu2884   2.349   1_545  S
O1987      C1998   1.295       .  A
O1987     Eu2023   2.474       .  S
O1988      C1999   1.292       .  A
O1988     Eu2022   2.458       .  S
O1989      C2000   1.288       .  A
O1989     Eu2451   2.431   1_554  S
O1990      C2001   1.290       .  A
O1990     Eu1995   2.447       .  S
O1991      C2001   1.294       .  A
O1991     Eu2025   2.470       .  S
O1992      C2000   1.292       .  A
O1992     Eu2024   2.456       .  S
O1993      C1999   1.287       .  A
O1993     Eu1995   2.432       .  S
O1994      C1998   1.287       .  A
O1994     Eu1995   2.432       .  S
Eu1995     O2445   2.459       .  S
Eu1995     O2005   2.349       .  S
Eu1995     O2453   2.348       .  S
Eu1995     O1996   2.348       .  S
Eu1995     O2459   2.347       .  S
O1996     Eu2025   2.351       .  S
O1996     Eu2022   2.349       .  S
O1997     Eu2451   2.347   1_554  S
O1997     Eu2479   2.344       .  S
O1997     Eu2024   2.350       .  S
C1998      C2651   1.482       .  S
C1999      C2641   1.476       .  S
C2000      C2135   1.477       .  S
C2001      C2145   1.485       .  S
H2002      O2003   0.961       .  S
O2003     Eu2451   2.356   1_554  S
O2003     Eu2024   2.354       .  S
O2003     Eu2478   2.348   1_554  S
H2004      O2005   0.962       .  S
O2005     Eu2023   2.345       .  S
O2005     Eu2025   2.351       .  S
O2006      C2029   1.292       .  A
O2006     Eu2022   2.465       .  S
O2007      C2030   1.291       .  A
O2007     Eu2023   2.455       .  S
O2008      C2031   1.290       .  A
O2008     Eu2024   2.448       .  S
O2009      C2032   1.292       .  A
O2009     Eu2025   2.460       .  S
O2010      C2033   1.293       .  A
O2010     Eu2025   2.465       .  S
O2011      C2034   1.289       .  A
O2011     Eu2024   2.441       .  S
O2012      C2035   1.292       .  A
O2012     Eu2482   2.462       .  S
O2013      C2036   1.293       .  A
O2013     Eu2026   2.463       .  S
O2014      C2035   1.293       .  A
O2014     Eu2024   2.467       .  S
O2015      C2036   1.293       .  A
O2015     Eu2025   2.463       .  S
O2016      C2031   1.291       .  A
O2016     Eu2478   2.456   1_554  S
O2017      C2034   1.292       .  A
O2017     Eu2479   2.457       .  S
O2018      C2033   1.290       .  A
O2018     Eu2023   2.451       .  S
O2019      C2032   1.289       .  A
O2019     Eu2022   2.442       .  S
O2020      C2029   1.293       .  A
O2020     Eu2026   2.466       .  S
O2021      C2030   1.295       .  A
O2021     Eu2026   2.476       .  S
Eu2022     O2472   2.445       .  S
Eu2022     O2459   2.352       .  S
Eu2022     O2040   2.351       .  S
Eu2022     O2484   2.352       .  S
Eu2023     O2473   2.444       .  S
Eu2023     O2453   2.348       .  S
Eu2023     O2027   2.353       .  S
Eu2023     O2494   2.356       .  S
Eu2024     O2038   2.351       .  S
Eu2024     O2028   2.341       .  S
Eu2025     O2027   2.350       .  S
Eu2025     O2040   2.355       .  S
Eu2026     O2468   2.457       .  S
Eu2026     O2027   2.355       .  S
Eu2026     O2494   2.352       .  S
Eu2026     O2040   2.351       .  S
Eu2026     O2484   2.351       .  S
O2028     Eu2478   2.347   1_554  S
O2028     Eu2482   2.341       .  S
C2029      C2621   1.488       .  S
C2030      C2631   1.486       .  S
C2031      C2055   1.473       .  S
C2032      C2065   1.477       .  S
C2033      C2075   1.482       .  S
C2034      C2045   1.478       .  S
C2035      C2125   1.490       .  S
C2036      C2155   1.488       .  S
H2037      O2038   0.961       .  S
O2038     Eu2479   2.358       .  S
O2038     Eu2482   2.347       .  S
H2039      O2040   0.961       .  S
C2041      C2042   1.406       .  A
C2041      C2046   1.397       .  A
C2041      H2047   1.083       .  S
C2042      C2043   1.405       .  A
C2043      C2044   1.393       .  A
C2043      H2048   1.083       .  S
C2044      C2045   1.403       .  A
C2044      H2049   1.083       .  S
C2045      C2046   1.407       .  A
C2046      H2050   1.083       .  S
C2051      C2052   1.403       .  A
C2051      C2056   1.394       .  A
C2051      H2057   1.083       .  S
C2052      C2053   1.404       .  A
C2053      C2054   1.397       .  A
C2053      H2058   1.083       .  S
C2054      C2055   1.405       .  A
C2054      H2059   1.083       .  S
C2055      C2056   1.404       .  A
C2056      H2060   1.083       .  S
C2061      C2062   1.404       .  A
C2061      C2066   1.396       .  A
C2061      H2067   1.083       .  S
C2062      C2063   1.406       .  A
C2063      C2064   1.395       .  A
C2063      H2068   1.083       .  S
C2064      C2065   1.405       .  A
C2064      H2069   1.083       .  S
C2065      C2066   1.405       .  A
C2066      H2070   1.083       .  S
C2071      C2072   1.405       .  A
C2071      C2076   1.397       .  A
C2071      H2077   1.083       .  S
C2072      C2073   1.406       .  A
C2073      C2074   1.398       .  A
C2073      H2078   1.083       .  S
C2074      C2075   1.407       .  A
C2074      H2079   1.083       .  S
C2075      C2076   1.405       .  A
C2076      H2080   1.083       .  S
C2081      C2082   1.408       .  A
C2081      C2086   1.400       .  A
C2081      H2087   1.083       .  S
C2082      C2083   1.406       .  A
C2083      C2084   1.399       .  A
C2083      H2088   1.083       .  S
C2084      C2085   1.407       .  A
C2084      H2089   1.083       .  S
C2085      C2086   1.407       .  A
C2086      H2090   1.083       .  S
C2091      C2092   1.406       .  A
C2091      C2096   1.398       .  A
C2091      H2097   1.083       .  S
C2092      C2093   1.407       .  A
C2093      C2094   1.397       .  A
C2093      H2098   1.083       .  S
C2094      C2095   1.406       .  A
C2094      H2099   1.083       .  S
C2095      C2096   1.406       .  A
C2096      H2100   1.083       .  S
C2101      C2102   1.407       .  A
C2101      C2106   1.397       .  A
C2101      H2107   1.083       .  S
C2102      C2103   1.403       .  A
C2103      C2104   1.396       .  A
C2103      H2108   1.083       .  S
C2104      C2105   1.406       .  A
C2104      H2109   1.083       .  S
C2105      C2106   1.405       .  A
C2106      H2110   1.083       .  S
C2111      C2112   1.406       .  A
C2111      C2116   1.398       .  A
C2111      H2117   1.083       .  S
C2112      C2113   1.408       .  A
C2113      C2114   1.400       .  A
C2113      H2118   1.083       .  S
C2114      C2115   1.406       .  A
C2114      H2119   1.083       .  S
C2115      C2116   1.407       .  A
C2116      H2120   1.083       .  S
C2121      C2122   1.407       .  A
C2121      C2126   1.399       .  A
C2121      H2127   1.083       .  S
C2122      C2123   1.407       .  A
C2123      C2124   1.400       .  A
C2123      H2128   1.083       .  S
C2124      C2125   1.407       .  A
C2124      H2129   1.083       .  S
C2125      C2126   1.408       .  A
C2126      H2130   1.083       .  S
C2131      C2132   1.407       .  A
C2131      C2136   1.394       .  A
C2131      H2137   1.083       .  S
C2132      C2133   1.406       .  A
C2133      C2134   1.397       .  A
C2133      H2138   1.083       .  S
C2134      C2135   1.407       .  A
C2134      H2139   1.083       .  S
C2135      C2136   1.403       .  A
C2136      H2140   1.083       .  S
C2141      C2142   1.408       .  A
C2141      C2146   1.399       .  A
C2141      H2147   1.083       .  S
C2142      C2143   1.405       .  A
C2143      C2144   1.396       .  A
C2143      H2148   1.083       .  S
C2144      C2145   1.408       .  A
C2144      H2149   1.083       .  S
C2145      C2146   1.405       .  A
C2146      H2150   1.083       .  S
C2151      C2152   1.409       .  A
C2151      C2156   1.401       .  A
C2151      H2157   1.083       .  S
C2152      C2153   1.406       .  A
C2153      C2154   1.398       .  A
C2153      H2158   1.083       .  S
C2154      C2155   1.407       .  A
C2154      H2159   1.083       .  S
C2155      C2156   1.407       .  A
C2156      H2160   1.083       .  S
C2161      C2162   1.408       .  A
C2161      C2166   1.398       .  A
C2161      H2167   1.083       .  S
C2162      C2163   1.406   1_554  A
C2163      C2164   1.397       .  A
C2163      H2168   1.083       .  S
C2164      C2165   1.406   1_556  A
C2164      H2169   1.083       .  S
C2165      C2485   1.483       .  S
C2165      C2166   1.407       .  A
C2166      H2170   1.083       .  S
C2171      C2172   1.407       .  A
C2171      C2176   1.397       .  A
C2171      H2177   1.083       .  S
C2172      C2173   1.405       .  A
C2173      C2174   1.395   1_556  A
C2173      H2178   1.083   1_556  S
C2174      C2175   1.406   1_554  A
C2174      H2179   1.083       .  S
C2175      C2486   1.482   1_556  S
C2175      C2176   1.406       .  A
C2176      H2180   1.083       .  S
C2181      C2182   1.408       .  A
C2181      C2186   1.398       .  A
C2181      H2187   1.083       .  S
C2182      C2183   1.405   1_556  A
C2183      C2184   1.397       .  A
C2183      H2188   1.083       .  S
C2184      C2185   1.406   1_554  A
C2184      H2189   1.083       .  S
C2185      C2455   1.482       .  S
C2185      C2186   1.406       .  A
C2186      H2190   1.083       .  S
C2191      C2192   1.407       .  A
C2191      C2196   1.399       .  A
C2191      H2197   1.083       .  S
C2192      C2193   1.407       .  A
C2193      C2194   1.397       .  A
C2193      H2198   1.083   1_554  S
C2194      C2195   1.406       .  A
C2194      H2199   1.083       .  S
C2195      C2454   1.485       .  S
C2195      C2196   1.408       .  A
C2196      H2200   1.083       .  S
C2201      C2202   1.407   1_545  A
C2201      C2206   1.400       .  A
C2201      H2207   1.083       .  S
C2202      C2203   1.408       .  A
C2203      C2204   1.402       .  A
C2203      H2208   1.083       .  S
C2204      C2205   1.407       .  A
C2204      H2209   1.083       .  S
C2205      C2888   1.491       .  S
C2205      C2206   1.407   1_565  A
C2206      H2210   1.083       .  S
C2211      C2212   1.406       .  A
C2211      C2216   1.397       .  A
C2211      H2217   1.083       .  S
C2212      C2213   1.408   1_565  A
C2213      C2214   1.399       .  A
C2213      H2218   1.083       .  S
C2214      C2215   1.407       .  A
C2214      H2219   1.083       .  S
C2215      C2887   1.486       .  S
C2215      C2216   1.407   1_545  A
C2216      H2220   1.083       .  S
C2221      C2222   1.407       .  A
C2221      C2226   1.399       .  A
C2221      H2227   1.083       .  S
C2222      C2223   1.406   1_545  A
C2223      C2224   1.399       .  A
C2223      H2228   1.083       .  S
C2224      C2225   1.406   1_565  A
C2224      H2229   1.083       .  S
C2225      C2857   1.487       .  S
C2225      C2226   1.407       .  A
C2226      H2230   1.083       .  S
C2231      C2232   1.405   1_565  A
C2231      C2236   1.396       .  A
C2231      H2237   1.083       .  S
C2232      C2233   1.408       .  A
C2233      C2234   1.400       .  A
C2233      H2238   1.083       .  S
C2234      C2235   1.407       .  A
C2234      H2239   1.083       .  S
C2235      C2856   1.484   1_545  S
C2235      C2236   1.406   1_545  A
C2236      H2240   1.083       .  S
C2241      C2246   1.397       .  A
C2241      H2247   1.083       .  S
C2242      C2243   1.403       .  A
C2243      C2244   1.395       .  A
C2243      H2248   1.083       .  S
C2244      C2245   1.404       .  A
C2244      H2249   1.083       .  S
C2246      H2250   1.083       .  S
C2251      C2252   1.404       .  A
C2251      C2256   1.396       .  A
C2251      H2257   1.083       .  S
C2253      C2254   1.395       .  A
C2253      H2258   1.083       .  S
C2254      H2259   1.083       .  S
C2255      C2256   1.406       .  A
C2256      H2260   1.083       .  S
C2261      C2266   1.397       .  A
C2261      H2267   1.083       .  S
C2262      C2263   1.404       .  A
C2263      C2264   1.394       .  A
C2263      H2268   1.083       .  S
C2264      C2265   1.404       .  A
C2264      H2269   1.083       .  S
C2266      H2270   1.083       .  S
C2271      C2272   1.404       .  A
C2271      C2276   1.394       .  A
C2271      H2277   1.083       .  S
C2273      C2274   1.393       .  A
C2273      H2278   1.083       .  S
C2274      H2279   1.083       .  S
C2275      C2276   1.406       .  A
C2276      H2280   1.083       .  S
O2281      C2292   1.291       .  A
O2281     Eu2317   2.454       .  S
O2282      C2293   1.290       .  A
O2282     Eu2316   2.451   1_545  S
O2283      C2294   1.293       .  A
O2283     Eu2289   2.468       .  S
O2284      C2295   1.292       .  A
O2285      C2295   1.293       .  A
O2285     Eu2319   2.464   1_545  S
O2286      C2294   1.291       .  A
O2286     Eu2318   2.454       .  S
O2287      C2293   1.289       .  A
O2288      C2292   1.289       .  A
O2288     Eu2289   2.441       .  S
Eu2289     O2291   2.355       .  S
O2291     Eu2317   2.354       .  S
O2291     Eu2318   2.354       .  S
C2292      C2728   1.477       .  S
C2293      C2698   1.471       .  S
C2294      C2648   1.484       .  S
C2295      C2628   1.486       .  S
H2296      O2297   0.962       .  S
O2297     Eu2316   2.355   1_545  S
H2298      O2299   0.961       .  S
O2299     Eu2319   2.350   1_545  S
O2300      C2323   1.291       .  A
O2300     Eu3228   2.450       .  S
O2301      C2324   1.290       .  A
O2301     Eu3229   2.448       .  S
O2302      C2325   1.292   1_545  A
O2303      C2326   1.290       .  A
O2304      C2327   1.291       .  A
O2304     Eu2319   2.452       .  S
O2305      C2328   1.293       .  A
O2305     Eu2318   2.464       .  S
O2306      C2329   1.290       .  A
O2306     Eu2320   2.450       .  S
O2307      C2330   1.292       .  A
O2308      C2329   1.291       .  A
O2308     Eu3230   2.454       .  S
O2309      C2330   1.289       .  A
O2309     Eu3231   2.445       .  S
O2310      C2325   1.290       .  A
O2310     Eu2316   2.447       .  S
O2311      C2328   1.290       .  A
O2311     Eu2317   2.450       .  S
O2312      C2327   1.292       .  A
O2313      C2326   1.291   1_565  A
O2314      C2323   1.290       .  A
O2315      C2324   1.292       .  A
O2315     Eu2320   2.457       .  S
Eu2316     O3212   2.457       .  S
Eu2316     O3234   2.349       .  S
Eu2317     O3213   2.448   1_545  S
Eu2317     O3244   2.356   1_545  S
Eu2318     O3220   2.468   1_545  S
Eu2318     O3244   2.345   1_545  S
Eu2318     O2778   2.351   1_545  S
Eu2319     O3221   2.451       .  S
Eu2319     O3233   2.351       .  S
Eu2319     O2790   2.353       .  S
Eu2320     O2332   2.353       .  S
O2321     Eu3231   2.343       .  S
O2322     Eu3228   2.347       .  S
O2322     Eu2774   2.347   1_556  S
C2323      C2711   1.469       .  S
C2324      C2718   1.476       .  S
C2325      C2668   1.481       .  S
C2326      C2658   1.479   1_545  S
C2327      C2688   1.483       .  S
C2328      C2678   1.482       .  S
C2329      C2638   1.479       .  S
C2330      C2618   1.483       .  S
H2331      O2332   0.961       .  S
O2332     Eu3229   2.361       .  S
O2332     Eu3230   2.358       .  S
H2333      O2334   0.962       .  S
O2334     Eu2775   2.351       .  S
O2335      C2346   1.289       .  A
O2335     Eu2371   2.437       .  S
O2336      C2347   1.289       .  A
O2336     Eu2370   2.443       .  S
O2337      C2348   1.291       .  A
O2337     Eu2343   2.458       .  S
O2338      C2349   1.292       .  A
O2339      C2349   1.291       .  A
O2339     Eu2373   2.453       .  S
O2340      C2348   1.292       .  A
O2340     Eu2372   2.461       .  S
O2341      C2347   1.290       .  A
O2341     Eu2343   2.447       .  S
O2342      C2346   1.290       .  A
O2342     Eu2343   2.446       .  S
Eu2343     O2345   2.349       .  S
Eu2343     O2351   2.350       .  S
O2344     Eu2373   2.343       .  S
O2345     Eu2371   2.356       .  S
O2345     Eu2372   2.346       .  S
C2346      C2731   1.474       .  S
C2347      C2701   1.468       .  S
C2348      C2558   1.484       .  S
C2349      C2538   1.482       .  S
H2350      O2351   0.962       .  S
O2351     Eu2372   2.350       .  S
O2351     Eu2370   2.358       .  S
H2352      O2353   0.962       .  S
O2353     Eu2373   2.345       .  S
O2354      C2377   1.291       .  A
O2354     Eu2370   2.458       .  S
O2355      C2378   1.289       .  A
O2355     Eu2371   2.442       .  S
O2356      C2379   1.292       .  A
O2356     Eu2372   2.457       .  S
O2357      C2380   1.289       .  A
O2357     Eu2373   2.442       .  S
O2358      C2381   1.288       .  A
O2358     Eu2373   2.438       .  S
O2359      C2382   1.293       .  A
O2359     Eu2372   2.465       .  S
O2360      C2383   1.293       .  A
O2360     Eu2374   2.464       .  S
O2361      C2384   1.291       .  A
O2362      C2383   1.290       .  A
O2362     Eu2372   2.446       .  S
O2363      C2384   1.290       .  A
O2363     Eu2373   2.449       .  S
O2364      C2379   1.292       .  A
O2364     Eu2370   2.455       .  S
O2365      C2382   1.292       .  A
O2365     Eu2371   2.459       .  S
O2366      C2381   1.293       .  A
O2367      C2380   1.292       .  A
O2368      C2377   1.289       .  A
O2368     Eu2374   2.443       .  S
O2369      C2378   1.291       .  A
O2369     Eu2374   2.453       .  S
Eu2370     O2376   2.350       .  S
Eu2371     O2386   2.350       .  S
Eu2372     O2386   2.354       .  S
Eu2372     O2376   2.356       .  S
Eu2373     O2375   2.349       .  S
Eu2373     O2388   2.346       .  S
Eu2374     O2386   2.348       .  S
Eu2374     O2376   2.348       .  S
C2377      C2708   1.470       .  S
C2378      C2721   1.475       .  S
C2379      C2598   1.482       .  S
C2380      C2608   1.481       .  S
C2381      C2578   1.480       .  S
C2382      C2588   1.487       .  S
C2383      C2568   1.483       .  S
C2384      C2548   1.481       .  S
H2385      O2386   0.960       .  S
H2387      O2388   0.961       .  S
O2389      C2400   1.292       .  A
O2389     Eu2425   2.460       .  S
O2390      C2401   1.292       .  A
O2390     Eu2424   2.455       .  S
O2391      C2402   1.287       .  A
O2391     Eu2397   2.433       .  S
O2392      C2403   1.290       .  A
O2392     Eu3309   2.449       .  S
O2393      C2403   1.290       .  A
O2393     Eu2427   2.448       .  S
O2394      C2402   1.289       .  A
O2394     Eu2426   2.440       .  S
O2395      C2401   1.290       .  A
O2395     Eu2397   2.447       .  S
O2396      C2400   1.292       .  A
O2396     Eu2397   2.463       .  S
Eu2397     O3304   2.461       .  S
Eu2397     O3319   2.344       .  S
Eu2397     O2399   2.350       .  S
Eu2397     O3310   2.349       .  S
Eu2397     O2405   2.358       .  S
O2398     Eu3309   2.343       .  S
O2398     Eu2427   2.339       .  S
O2398     Eu3336   2.343       .  S
O2399     Eu2425   2.346       .  S
O2399     Eu2426   2.353       .  S
C2400      C3603   1.486       .  S
C2401      C3593   1.478       .  S
C2402      C2508   1.470       .  S
C2403      C2498   1.475       .  S
H2404      O2405   0.962       .  S
O2405     Eu2426   2.351       .  S
O2405     Eu2424   2.355       .  S
H2406      O2407   0.961       .  S
O2407     Eu3309   2.348       .  S
O2407     Eu3337   2.355       .  S
O2407     Eu2427   2.355       .  S
O2408      C2431   1.293       .  A
O2408     Eu2424   2.466       .  S
O2409      C2432   1.291       .  A
O2409     Eu2425   2.452       .  S
O2410      C2433   1.292       .  A
O2410     Eu2426   2.462       .  S
O2411      C2434   1.293       .  A
O2411     Eu2427   2.464       .  S
O2412      C2435   1.292       .  A
O2412     Eu2427   2.458       .  S
O2413      C2436   1.292       .  A
O2413     Eu2426   2.460       .  S
O2414      C2437   1.289       .  A
O2414     Eu2428   2.443       .  S
O2415      C2438   1.291       .  A
O2415     Eu3340   2.453       .  S
O2416      C2437   1.289       .  A
O2416     Eu2426   2.441       .  S
O2417      C2438   1.289       .  A
O2417     Eu2427   2.441       .  S
O2418      C2433   1.293       .  A
O2418     Eu2424   2.464       .  S
O2419      C2436   1.290       .  A
O2419     Eu2425   2.451       .  S
O2420      C2435   1.292       .  A
O2420     Eu3337   2.459       .  S
O2421      C2434   1.288       .  A
O2421     Eu3336   2.440       .  S
O2422      C2431   1.290       .  A
O2422     Eu2428   2.452       .  S
O2423      C2432   1.291       .  A
O2423     Eu2428   2.453       .  S
Eu2424     O3333   2.470       .  S
Eu2424     O3310   2.354       .  S
Eu2424     O3354   2.348       .  S
Eu2424     O2430   2.349       .  S
Eu2425     O3332   2.448       .  S
Eu2425     O3319   2.350       .  S
Eu2425     O3341   2.350       .  S
Eu2425     O2440   2.348       .  S
Eu2426     O2440   2.344       .  S
Eu2426     O2430   2.350       .  S
Eu2427     O2429   2.353       .  S
Eu2427     O2442   2.351       .  S
Eu2428     O3327   2.440       .  S
Eu2428     O3341   2.350       .  S
Eu2428     O2440   2.347       .  S
Eu2428     O3354   2.346       .  S
Eu2428     O2430   2.348       .  S
O2429     Eu3337   2.349       .  S
O2429     Eu3340   2.349       .  S
C2431      C3583   1.485       .  S
C2432      C3573   1.483       .  S
C2433      C2571   1.486       .  S
C2434      C2561   1.482       .  S
C2435      C2541   1.483       .  S
C2436      C2551   1.482       .  S
C2437      C2518   1.472       .  S
C2438      C2528   1.471       .  S
H2439      O2440   0.961       .  S
H2441      O2442   0.960       .  S
O2442     Eu3336   2.347       .  S
O2442     Eu3340   2.351       .  S
O2443      C2454   1.292       .  A
O2443     Eu2479   2.461       .  S
O2444      C2455   1.292   1_554  A
O2444     Eu2478   2.458   1_554  S
O2445      C2456   1.291       .  A
O2446      C2457   1.290       .  A
O2446     Eu2451   2.447       .  S
O2447      C2457   1.292       .  A
O2447     Eu2481   2.460       .  S
O2448      C2456   1.292       .  A
O2448     Eu2480   2.461       .  S
O2449      C2455   1.291       .  A
O2449     Eu2451   2.452       .  S
O2450      C2454   1.291       .  A
O2450     Eu2451   2.455   1_554  S
Eu2451     O2461   2.347       .  S
Eu2451     O2452   2.347       .  S
O2452     Eu2481   2.349       .  S
O2452     Eu2478   2.351       .  S
O2453     Eu2480   2.348       .  S
C2456      C2591   1.487       .  S
C2457      C2601   1.482       .  S
H2458      O2459   0.961       .  S
O2459     Eu2480   2.352       .  S
H2460      O2461   0.962       .  S
O2461     Eu2479   2.353   1_556  S
O2461     Eu2481   2.353       .  S
O2462      C2485   1.290   1_556  A
O2462     Eu2478   2.448       .  S
O2463      C2486   1.291   1_556  A
O2463     Eu2479   2.450   1_556  S
O2464      C2487   1.289       .  A
O2464     Eu2480   2.440       .  S
O2465      C2488   1.292       .  A
O2465     Eu2481   2.458       .  S
O2466      C2489   1.290       .  A
O2466     Eu2481   2.450       .  S
O2467      C2490   1.291       .  A
O2467     Eu2480   2.453       .  S
O2468      C2491   1.292       .  A
O2469      C2492   1.290       .  A
O2469     Eu2482   2.447   1_556  S
O2470      C2491   1.292       .  A
O2470     Eu2480   2.461       .  S
O2471      C2492   1.292       .  A
O2471     Eu2481   2.459       .  S
O2472      C2487   1.290       .  A
O2473      C2490   1.290       .  A
O2474      C2489   1.292       .  A
O2474     Eu2479   2.462   1_556  S
O2475      C2488   1.290       .  A
O2475     Eu2478   2.449       .  S
O2476      C2485   1.293       .  A
O2476     Eu2482   2.462       .  S
O2477      C2486   1.292       .  A
O2477     Eu2482   2.459       .  S
Eu2478     O2496   2.353       .  S
Eu2479     O2483   2.350   1_554  S
Eu2480     O2494   2.351       .  S
Eu2480     O2484   2.353       .  S
Eu2481     O2483   2.352       .  S
Eu2481     O2496   2.352       .  S
Eu2482     O2483   2.351   1_554  S
Eu2482     O2496   2.354   1_554  S
C2487      C2511   1.472       .  S
C2488      C2521   1.476       .  S
C2489      C2531   1.473       .  S
C2490      C2501   1.475       .  S
C2491      C2581   1.482       .  S
C2492      C2611   1.481       .  S
H2493      O2494   0.961       .  S
H2495      O2496   0.962       .  S
C2497      C2498   1.405       .  A
C2497      C2502   1.395       .  A
C2497      H2503   1.083       .  S
C2498      C2499   1.404       .  A
C2499      C2500   1.394       .  A
C2499      H2504   1.083       .  S
C2500      C2501   1.405       .  A
C2500      H2505   1.083       .  S
C2501      C2502   1.404       .  A
C2502      H2506   1.083       .  S
C2507      C2508   1.406       .  A
C2507      C2512   1.391       .  A
C2507      H2513   1.083       .  S
C2508      C2509   1.403       .  A
C2509      C2510   1.391       .  A
C2509      H2514   1.083       .  S
C2510      C2511   1.406       .  A
C2510      H2515   1.083       .  S
C2511      C2512   1.404       .  A
C2512      H2516   1.083       .  S
C2517      C2518   1.404       .  A
C2517      C2522   1.394       .  A
C2517      H2523   1.083       .  S
C2518      C2519   1.404       .  A
C2519      C2520   1.395       .  A
C2519      H2524   1.083       .  S
C2520      C2521   1.406       .  A
C2520      H2525   1.083       .  S
C2521      C2522   1.404       .  A
C2522      H2526   1.083       .  S
C2527      C2528   1.404       .  A
C2527      C2532   1.396       .  A
C2527      H2533   1.083       .  S
C2528      C2529   1.404       .  A
C2529      C2530   1.395       .  A
C2529      H2534   1.083       .  S
C2530      C2531   1.404       .  A
C2530      H2535   1.083       .  S
C2531      C2532   1.405       .  A
C2532      H2536   1.083       .  S
C2537      C2538   1.405       .  A
C2537      C2542   1.397       .  A
C2537      H2543   1.083       .  S
C2538      C2539   1.407       .  A
C2539      C2540   1.398       .  A
C2539      H2544   1.083       .  S
C2540      C2541   1.406       .  A
C2540      H2545   1.083       .  S
C2541      C2542   1.406       .  A
C2542      H2546   1.083       .  S
C2547      C2548   1.405       .  A
C2547      C2552   1.396       .  A
C2547      H2553   1.083       .  S
C2548      C2549   1.407       .  A
C2549      C2550   1.396       .  A
C2549      H2554   1.083       .  S
C2550      C2551   1.405       .  A
C2550      H2555   1.083       .  S
C2551      C2552   1.407       .  A
C2552      H2556   1.083       .  S
C2557      C2558   1.407       .  A
C2557      C2562   1.396       .  A
C2557      H2563   1.083       .  S
C2558      C2559   1.407       .  A
C2559      C2560   1.399       .  A
C2559      H2564   1.083       .  S
C2560      C2561   1.408       .  A
C2560      H2565   1.083       .  S
C2561      C2562   1.404       .  A
C2562      H2566   1.083       .  S
C2567      C2568   1.405       .  A
C2567      C2572   1.397       .  A
C2567      H2573   1.083       .  S
C2568      C2569   1.407       .  A
C2569      C2570   1.399       .  A
C2569      H2574   1.083       .  S
C2570      C2571   1.408       .  A
C2570      H2575   1.083       .  S
C2571      C2572   1.406       .  A
C2572      H2576   1.083       .  S
C2577      C2578   1.403       .  A
C2577      C2582   1.395       .  A
C2577      H2583   1.083       .  S
C2578      C2579   1.408       .  A
C2579      C2580   1.398       .  A
C2579      H2584   1.083       .  S
C2580      C2581   1.406       .  A
C2580      H2585   1.083       .  S
C2581      C2582   1.407       .  A
C2582      H2586   1.083       .  S
C2587      C2588   1.406       .  A
C2587      C2592   1.396       .  A
C2587      H2593   1.083       .  S
C2588      C2589   1.408       .  A
C2589      C2590   1.402       .  A
C2589      H2594   1.083       .  S
C2590      C2591   1.408       .  A
C2590      H2595   1.083       .  S
C2591      C2592   1.406       .  A
C2592      H2596   1.083       .  S
C2597      C2598   1.406       .  A
C2597      C2602   1.397       .  A
C2597      H2603   1.083       .  S
C2598      C2599   1.406       .  A
C2599      C2600   1.396       .  A
C2599      H2604   1.083       .  S
C2600      C2601   1.406       .  A
C2600      H2605   1.083       .  S
C2601      C2602   1.406       .  A
C2602      H2606   1.083       .  S
C2607      C2608   1.405       .  A
C2607      C2612   1.396       .  A
C2607      H2613   1.083       .  S
C2608      C2609   1.407       .  A
C2609      C2610   1.395       .  A
C2609      H2614   1.083       .  S
C2610      C2611   1.405       .  A
C2610      H2615   1.083       .  S
C2611      C2612   1.407       .  A
C2612      H2616   1.083       .  S
C2617      C2618   1.408       .  A
C2617      C2622   1.401       .  A
C2617      H2623   1.083       .  S
C2618      C2619   1.404       .  A
C2619      C2620   1.396       .  A
C2619      H2624   1.083       .  S
C2620      C2621   1.407       .  A
C2620      H2625   1.083       .  S
C2621      C2622   1.407       .  A
C2622      H2626   1.083       .  S
C2627      C2628   1.406       .  A
C2627      C2632   1.401       .  A
C2627      H2633   1.083       .  S
C2628      C2629   1.407       .  A
C2629      C2630   1.398       .  A
C2629      H2634   1.083       .  S
C2630      C2631   1.405       .  A
C2630      H2635   1.083       .  S
C2631      C2632   1.409       .  A
C2632      H2636   1.083       .  S
C2637      C2638   1.406       .  A
C2637      C2642   1.394       .  A
C2637      H2643   1.083       .  S
C2638      C2639   1.405       .  A
C2639      C2640   1.395       .  A
C2639      H2644   1.083       .  S
C2640      C2641   1.407       .  A
C2640      H2645   1.083       .  S
C2641      C2642   1.403       .  A
C2642      H2646   1.083       .  S
C2647      C2648   1.406       .  A
C2647      C2652   1.400       .  A
C2647      H2653   1.083       .  S
C2648      C2649   1.407       .  A
C2649      C2650   1.395       .  A
C2649      H2654   1.083       .  S
C2650      C2651   1.402       .  A
C2650      H2655   1.083       .  S
C2651      C2652   1.409       .  A
C2652      H2656   1.083       .  S
C2657      C2658   1.407       .  A
C2657      C2662   1.394       .  A
C2657      H2663   1.083       .  S
C2658      C2659   1.404   1_565  A
C2659      C2660   1.396       .  A
C2659      H2664   1.083       .  S
C2660      C2661   1.407   1_545  A
C2660      H2665   1.083       .  S
C2661      C3344   1.479       .  S
C2661      C2662   1.404       .  A
C2662      H2666   1.083       .  S
C2667      C2668   1.406       .  A
C2667      C2672   1.397       .  A
C2667      H2673   1.083       .  S
C2668      C2669   1.406   1_565  A
C2669      C2670   1.396       .  A
C2669      H2674   1.083       .  S
C2670      C2671   1.404   1_545  A
C2670      H2675   1.083       .  S
C2671      C3343   1.480   1_565  S
C2671      C2672   1.408       .  A
C2672      H2676   1.083       .  S
C2677      C2678   1.405   1_565  A
C2677      C2682   1.394       .  A
C2677      H2683   1.083       .  S
C2678      C2679   1.407       .  A
C2679      C2680   1.398       .  A
C2679      H2684   1.083       .  S
C2680      C2681   1.408       .  A
C2680      H2685   1.083       .  S
C2681      C3313   1.479       .  S
C2681      C2682   1.403   1_545  A
C2682      H2686   1.083       .  S
C2687      C2688   1.406   1_545  A
C2687      C2692   1.397       .  A
C2687      H2693   1.083       .  S
C2688      C2689   1.407       .  A
C2689      C2690   1.398       .  A
C2689      H2694   1.083       .  S
C2690      C2691   1.405   1_565  A
C2690      H2695   1.083       .  S
C2691      C3312   1.483       .  S
C2691      C2692   1.407       .  A
C2692      H2696   1.083       .  S
C2697      C2702   1.394       .  A
C2697      H2703   1.083       .  S
C2698      C2699   1.404       .  A
C2699      C2700   1.394       .  A
C2699      H2704   1.083       .  S
C2700      C2701   1.403       .  A
C2700      H2705   1.083       .  S
C2702      H2706   1.083       .  S
C2707      C2708   1.403       .  A
C2707      C2712   1.395       .  A
C2707      H2713   1.083       .  S
C2709      C2710   1.394       .  A
C2709      H2714   1.083       .  S
C2710      H2715   1.083       .  S
C2711      C2712   1.405       .  A
C2712      H2716   1.083       .  S
C2717      C2722   1.398       .  A
C2717      H2723   1.083       .  S
C2718      C2719   1.404       .  A
C2719      C2720   1.393       .  A
C2719      H2724   1.083       .  S
C2720      C2721   1.405       .  A
C2720      H2725   1.083       .  S
C2722      H2726   1.083       .  S
C2727      C2728   1.407       .  A
C2727      C2732   1.395       .  A
C2727      H2733   1.083       .  S
C2729      C2730   1.391       .  A
C2729      H2734   1.083       .  S
C2730      H2735   1.083       .  S
C2731      C2732   1.406       .  A
C2732      H2736   1.083       .  S
O2737      C2748   1.289       .  A
O2737     Eu2773   2.439       .  S
O2738      C2749   1.290       .  A
O2738     Eu2772   2.448       .  S
O2739      C2750   1.290       .  A
O2739     Eu2745   2.447   1_554  S
O2740      C2751   1.291       .  A
O2741      C2751   1.291       .  A
O2741     Eu2775   2.455       .  S
O2742      C2750   1.291       .  A
O2742     Eu2774   2.452       .  S
O2743      C2749   1.289       .  A
O2743     Eu3201   2.442       .  S
O2744      C2748   1.290       .  A
O2744     Eu2745   2.450   1_554  S
Eu2745     O3199   2.447       .  S
Eu2745     O2747   2.352   1_556  S
Eu2745     O3209   2.353       .  S
O2746     Eu3231   2.344       .  S
O2747     Eu2773   2.346       .  S
O2747     Eu2774   2.347       .  S
C2748      C3184   1.475       .  S
C2749      C3154   1.475       .  S
C2750      C3104   1.480       .  S
C2751      C3084   1.483       .  S
H2752      O2753   0.962       .  S
O2753     Eu3201   2.357       .  S
O2753     Eu3230   2.348       .  S
O2753     Eu2772   2.351       .  S
H2754      O2755   0.961       .  S
O2755     Eu2775   2.354   1_554  S
O2756      C2779   1.290       .  A
O2757      C2780   1.291       .  A
O2758      C2781   1.291       .  A
O2758     Eu3230   2.458       .  S
O2759      C2782   1.290       .  A
O2759     Eu3231   2.446       .  S
O2760      C2783   1.292       .  A
O2760     Eu2775   2.455   1_554  S
O2761      C2784   1.290       .  A
O2761     Eu2774   2.450       .  S
O2762      C2785   1.294       .  A
O2762     Eu2776   2.469       .  S
O2763      C2786   1.291   1_554  A
O2764      C2785   1.292       .  A
O2765      C2786   1.292       .  A
O2766      C2781   1.293       .  A
O2766     Eu2772   2.472       .  S
O2767      C2784   1.294       .  A
O2767     Eu2773   2.471       .  S
O2768      C2783   1.291       .  A
O2769      C2782   1.292       .  A
O2770      C2779   1.293       .  A
O2770     Eu3232   2.468       .  S
O2771      C2780   1.290       .  A
O2771     Eu2776   2.445       .  S
Eu2774     O3214   2.446   1_554  S
Eu2774     O3209   2.351   1_554  S
Eu2775     O3215   2.454       .  S
Eu2775     O3202   2.348       .  S
Eu2776     O3226   2.439   1_554  S
Eu2776     O2788   2.350       .  S
Eu2776     O3234   2.350   1_554  S
O2778     Eu3232   2.345       .  S
C2779      C3167   1.479       .  S
C2780      C3174   1.479       .  S
C2781      C3124   1.487       .  S
C2782      C3114   1.481       .  S
C2783      C3144   1.480       .  S
C2784      C3134   1.489       .  S
C2785      C3094   1.490       .  S
C2786      C3074   1.483   1_556  S
H2787      O2788   0.961       .  S
H2789      O2790   0.962       .  S
O2791      C2802   1.290       .  A
O2791     Eu2827   2.444       .  S
O2792      C2803   1.291       .  A
O2792     Eu2826   2.457       .  S
O2793      C2804   1.292       .  A
O2793     Eu2799   2.463       .  S
O2794      C2805   1.293       .  A
O2795      C2805   1.287       .  A
O2795     Eu2829   2.433       .  S
O2796      C2804   1.292       .  A
O2796     Eu2828   2.460       .  S
O2797      C2803   1.290       .  A
O2797     Eu2799   2.448       .  S
O2798      C2802   1.291       .  A
O2798     Eu2799   2.449       .  S
Eu2799     O2801   2.345       .  S
Eu2799     O2807   2.350       .  S
O2800     Eu2829   2.350       .  S
O2801     Eu2827   2.351       .  S
O2801     Eu2828   2.341       .  S
C2802      C3187   1.475       .  S
C2803      C3157   1.478       .  S
C2804      C3014   1.487       .  S
C2805      C2994   1.477       .  S
H2806      O2807   0.962       .  S
O2807     Eu2828   2.347       .  S
O2807     Eu2826   2.353       .  S
H2808      O2809   0.962       .  S
O2809     Eu2829   2.349       .  S
O2810      C2833   1.292       .  A
O2810     Eu2826   2.458       .  S
O2811      C2834   1.293       .  A
O2811     Eu2827   2.464       .  S
O2812      C2835   1.291       .  A
O2812     Eu2828   2.455       .  S
O2813      C2836   1.290       .  A
O2813     Eu2829   2.445       .  S
O2814      C2837   1.292       .  A
O2814     Eu2829   2.460       .  S
O2815      C2838   1.290       .  A
O2815     Eu2828   2.449       .  S
O2816      C2839   1.293       .  A
O2816     Eu2830   2.462       .  S
O2817      C2840   1.293       .  A
O2818      C2839   1.290       .  A
O2818     Eu2828   2.444       .  S
O2819      C2840   1.290       .  A
O2819     Eu2829   2.450       .  S
O2820      C2835   1.293       .  A
O2820     Eu2826   2.463       .  S
O2821      C2838   1.292       .  A
O2821     Eu2827   2.459       .  S
O2822      C2837   1.291       .  A
O2823      C2836   1.291       .  A
O2824      C2833   1.291       .  A
O2824     Eu2830   2.451       .  S
O2825      C2834   1.290       .  A
O2825     Eu2830   2.451       .  S
Eu2826     O2832   2.347       .  S
Eu2827     O2842   2.348       .  S
Eu2828     O2842   2.356       .  S
Eu2828     O2832   2.350       .  S
Eu2829     O2831   2.350       .  S
Eu2829     O2844   2.347       .  S
Eu2830     O2842   2.353       .  S
Eu2830     O2832   2.353       .  S
C2833      C3164   1.478       .  S
C2834      C3177   1.482       .  S
C2835      C3054   1.487       .  S
C2836      C3064   1.480       .  S
C2837      C3034   1.484       .  S
C2838      C3044   1.482       .  S
C2839      C3024   1.482       .  S
C2840      C3004   1.485       .  S
H2841      O2842   0.961       .  S
H2843      O2844   0.961       .  S
O2845      C2856   1.293       .  A
O2845     Eu2881   2.461       .  S
O2846      C2857   1.293       .  A
O2846     Eu2880   2.468       .  S
O2847      C2858   1.290       .  A
O2847     Eu2853   2.453   1_565  S
O2848      C2859   1.289       .  A
O2849      C2859   1.291       .  A
O2849     Eu2883   2.451       .  S
O2850      C2858   1.290       .  A
O2850     Eu2882   2.450       .  S
O2851      C2857   1.292       .  A
O2851     Eu2853   2.460       .  S
O2852      C2856   1.291   1_545  A
O2852     Eu2853   2.454       .  S
Eu2853     O2855   2.355   1_545  S
Eu2853     O2861   2.352   1_545  S
O2854     Eu2883   2.351       .  S
O2855     Eu2881   2.352       .  S
O2855     Eu2882   2.348       .  S
C2858      C2964   1.470       .  S
C2859      C2954   1.473       .  S
H2860      O2861   0.963       .  S
O2861     Eu2882   2.358       .  S
O2861     Eu2880   2.352   1_565  S
H2862      O2863   0.961       .  S
O2863     Eu2883   2.354       .  S
O2864      C2887   1.292       .  A
O2864     Eu2880   2.458       .  S
O2865      C2888   1.294       .  A
O2865     Eu2881   2.474       .  S
O2866      C2889   1.291       .  A
O2866     Eu2882   2.452       .  S
O2867      C2890   1.292       .  A
O2867     Eu2883   2.458       .  S
O2868      C2891   1.291       .  A
O2868     Eu2883   2.450       .  S
O2869      C2892   1.291       .  A
O2869     Eu2882   2.458       .  S
O2870      C2893   1.289       .  A
O2870     Eu2884   2.439       .  S
O2871      C2894   1.289       .  A
O2872      C2893   1.292       .  A
O2872     Eu2882   2.458       .  S
O2873      C2894   1.291       .  A
O2873     Eu2883   2.453       .  S
O2874      C2889   1.294       .  A
O2874     Eu2880   2.470   1_565  S
O2875      C2892   1.291       .  A
O2875     Eu2881   2.452       .  S
O2876      C2891   1.289       .  A
O2877      C2890   1.293       .  A
O2878      C2887   1.293       .  A
O2878     Eu2884   2.465   1_545  S
O2879      C2888   1.293       .  A
O2879     Eu2884   2.463       .  S
Eu2880     O2886   2.350   1_545  S
Eu2881     O2896   2.347       .  S
Eu2882     O2896   2.348       .  S
Eu2882     O2886   2.355       .  S
Eu2883     O2885   2.348       .  S
Eu2883     O2898   2.350       .  S
Eu2884     O2896   2.349       .  S
Eu2884     O2886   2.355       .  S
C2889      C3027   1.485       .  S
C2890      C3017   1.486       .  S
C2891      C2997   1.476       .  S
C2892      C3007   1.483       .  S
C2893      C2974   1.478       .  S
C2894      C2984   1.476       .  S
H2895      O2896   0.961       .  S
H2897      O2898   0.961       .  S
O2899      C2910   1.290       .  A
O2899     Eu2935   2.448       .  S
O2900      C2911   1.293       .  A
O2900     Eu2934   2.462       .  S
O2901      C2912   1.290       .  A
O2901     Eu3363   2.451       .  S
O2902      C2913   1.293       .  A
O2902     Eu2907   2.464       .  S
O2903      C2913   1.293       .  A
O2903     Eu2937   2.464       .  S
O2904      C2912   1.293       .  A
O2904     Eu2936   2.467       .  S
O2905      C2911   1.292       .  A
O2905     Eu2907   2.457       .  S
O2906      C2910   1.294       .  A
O2906     Eu2907   2.468       .  S
Eu2907     O3357   2.458       .  S
Eu2907     O2917   2.347       .  S
Eu2907     O3365   2.346       .  S
Eu2907     O2908   2.346       .  S
Eu2907     O3371   2.359       .  S
O2908     Eu2937   2.344       .  S
O2908     Eu2934   2.351       .  S
O2909     Eu3363   2.354       .  S
O2909     Eu3391   2.356       .  S
O2909     Eu2936   2.357       .  S
C2910      C3563   1.484       .  S
C2911      C3553   1.487       .  S
C2912      C3047   1.483       .  S
C2913      C3057   1.489       .  S
H2914      O2915   0.961       .  S
O2915     Eu3363   2.352       .  S
O2915     Eu2936   2.348       .  S
O2915     Eu3390   2.352       .  S
H2916      O2917   0.962       .  S
O2917     Eu2935   2.361       .  S
O2917     Eu2937   2.349       .  S
O2918      C2941   1.293       .  A
O2918     Eu2934   2.464       .  S
O2919      C2942   1.294       .  A
O2919     Eu2935   2.472       .  S
O2920      C2943   1.292       .  A
O2920     Eu2936   2.460       .  S
O2921      C2944   1.291       .  A
O2921     Eu2937   2.452       .  S
O2922      C2945   1.292       .  A
O2922     Eu2937   2.461       .  S
O2923      C2946   1.289       .  A
O2923     Eu2936   2.444       .  S
O2924      C2947   1.292       .  A
O2924     Eu3394   2.458       .  S
O2925      C2948   1.291       .  A
O2925     Eu2938   2.455       .  S
O2926      C2947   1.291       .  A
O2926     Eu2936   2.456       .  S
O2927      C2948   1.291       .  A
O2927     Eu2937   2.452       .  S
O2928      C2943   1.287       .  A
O2928     Eu3390   2.432       .  S
O2929      C2946   1.292       .  A
O2929     Eu3391   2.458       .  S
O2930      C2945   1.287       .  A
O2930     Eu2935   2.425       .  S
O2931      C2944   1.291       .  A
O2931     Eu2934   2.453       .  S
O2932      C2941   1.290       .  A
O2932     Eu2938   2.448       .  S
O2933      C2942   1.290       .  A
O2933     Eu2938   2.448       .  S
Eu2934     O3384   2.455       .  S
Eu2934     O3371   2.357       .  S
Eu2934     O2952   2.356       .  S
Eu2934     O3396   2.348       .  S
Eu2935     O3385   2.442       .  S
Eu2935     O3365   2.342       .  S
Eu2935     O2939   2.345       .  S
Eu2935     O3406   2.345       .  S
Eu2936     O2950   2.356       .  S
Eu2936     O2940   2.350       .  S
Eu2937     O2939   2.348       .  S
Eu2937     O2952   2.356       .  S
Eu2938     O3380   2.449       .  S
Eu2938     O2939   2.344       .  S
Eu2938     O3406   2.353       .  S
Eu2938     O2952   2.350       .  S
Eu2938     O3396   2.353       .  S
O2940     Eu3390   2.347       .  S
O2940     Eu3394   2.348       .  S
C2941      C3533   1.483       .  S
C2942      C3543   1.487       .  S
C2943      C2967   1.467       .  S
C2944      C2977   1.480       .  S
C2945      C2987   1.473       .  S
C2946      C2957   1.475       .  S
C2947      C3037   1.482       .  S
C2948      C3067   1.481       .  S
H2949      O2950   0.960       .  S
O2950     Eu3391   2.351       .  S
O2950     Eu3394   2.352       .  S
H2951      O2952   0.962       .  S
C2953      C2954   1.404       .  A
C2953      C2958   1.395       .  A
C2953      H2959   1.083       .  S
C2954      C2955   1.405       .  A
C2955      C2956   1.394       .  A
C2955      H2960   1.083       .  S
C2956      C2957   1.404       .  A
C2956      H2961   1.083       .  S
C2957      C2958   1.406       .  A
C2958      H2962   1.083       .  S
C2963      C2964   1.403       .  A
C2963      C2968   1.395       .  A
C2963      H2969   1.083       .  S
C2964      C2965   1.405       .  A
C2965      C2966   1.395       .  A
C2965      H2970   1.083       .  S
C2966      C2967   1.402       .  A
C2966      H2971   1.083       .  S
C2967      C2968   1.404       .  A
C2968      H2972   1.084       .  S
C2973      C2974   1.407       .  A
C2973      C2978   1.395       .  A
C2973      H2979   1.083       .  S
C2974      C2975   1.404       .  A
C2975      C2976   1.396       .  A
C2975      H2980   1.083       .  S
C2976      C2977   1.407       .  A
C2976      H2981   1.083       .  S
C2977      C2978   1.404       .  A
C2978      H2982   1.083       .  S
C2983      C2984   1.404       .  A
C2983      C2988   1.392       .  A
C2983      H2989   1.083       .  S
C2984      C2985   1.406       .  A
C2985      C2986   1.396       .  A
C2985      H2990   1.083       .  S
C2986      C2987   1.406       .  A
C2986      H2991   1.083       .  S
C2987      C2988   1.403       .  A
C2988      H2992   1.083       .  S
C2993      C2994   1.403       .  A
C2993      C2998   1.393       .  A
C2993      H2999   1.083       .  S
C2994      C2995   1.408       .  A
C2995      C2996   1.395       .  A
C2995      H3000   1.083       .  S
C2996      C2997   1.404       .  A
C2996      H3001   1.083       .  S
C2997      C2998   1.406       .  A
C2998      H3002   1.083       .  S
C3003      C3004   1.405       .  A
C3003      C3008   1.396       .  A
C3003      H3009   1.083       .  S
C3004      C3005   1.408       .  A
C3005      C3006   1.399       .  A
C3005      H3010   1.083       .  S
C3006      C3007   1.406       .  A
C3006      H3011   1.083       .  S
C3007      C3008   1.406       .  A
C3008      H3012   1.083       .  S
C3013      C3014   1.407       .  A
C3013      C3018   1.399       .  A
C3013      H3019   1.083       .  S
C3014      C3015   1.407       .  A
C3015      C3016   1.399       .  A
C3015      H3020   1.083       .  S
C3016      C3017   1.406       .  A
C3016      H3021   1.083       .  S
C3017      C3018   1.407       .  A
C3018      H3022   1.083       .  S
C3023      C3024   1.405       .  A
C3023      C3028   1.397       .  A
C3023      H3029   1.083       .  S
C3024      C3025   1.408       .  A
C3025      C3026   1.398       .  A
C3025      H3030   1.083       .  S
C3026      C3027   1.407       .  A
C3026      H3031   1.083       .  S
C3027      C3028   1.406       .  A
C3028      H3032   1.083       .  S
C3033      C3034   1.406       .  A
C3033      C3038   1.396       .  A
C3033      H3039   1.083       .  S
C3034      C3035   1.407       .  A
C3035      C3036   1.399       .  A
C3035      H3040   1.083       .  S
C3036      C3037   1.407       .  A
C3036      H3041   1.083       .  S
C3037      C3038   1.405       .  A
C3038      H3042   1.083       .  S
C3043      C3044   1.407       .  A
C3043      C3048   1.396       .  A
C3043      H3049   1.083       .  S
C3044      C3045   1.405       .  A
C3045      C3046   1.398       .  A
C3045      H3050   1.083       .  S
C3046      C3047   1.408       .  A
C3046      H3051   1.083       .  S
C3047      C3048   1.405       .  A
C3048      H3052   1.083       .  S
C3053      C3054   1.408       .  A
C3053      C3058   1.401       .  A
C3053      H3059   1.083       .  S
C3054      C3055   1.405       .  A
C3055      C3056   1.398       .  A
C3055      H3060   1.083       .  S
C3056      C3057   1.407       .  A
C3056      H3061   1.083       .  S
C3057      C3058   1.407       .  A
C3058      H3062   1.083       .  S
C3063      C3064   1.405       .  A
C3063      C3068   1.397       .  A
C3063      H3069   1.083       .  S
C3064      C3065   1.406       .  A
C3065      C3066   1.395       .  A
C3065      H3070   1.083       .  S
C3066      C3067   1.405       .  A
C3066      H3071   1.083       .  S
C3067      C3068   1.407       .  A
C3068      H3072   1.083       .  S
C3073      C3074   1.406       .  A
C3073      C3078   1.397       .  A
C3073      H3079   1.083       .  S
C3074      C3075   1.407   1_554  A
C3075      C3076   1.398       .  A
C3075      H3080   1.083       .  S
C3076      C3077   1.407   1_556  A
C3076      H3081   1.083       .  S
C3077      C3397   1.484       .  S
C3077      C3078   1.406       .  A
C3078      H3082   1.083       .  S
C3083      C3084   1.407       .  A
C3083      C3088   1.397       .  A
C3083      H3089   1.083       .  S
C3084      C3085   1.406       .  A
C3085      C3086   1.397       .  A
C3085      H3090   1.083   1_556  S
C3086      C3087   1.408       .  A
C3086      H3091   1.083   1_556  S
C3087      C3398   1.482       .  S
C3087      C3088   1.404       .  A
C3088      H3092   1.083       .  S
C3093      C3094   1.409       .  A
C3093      C3098   1.400       .  A
C3093      H3099   1.083   1_554  S
C3094      C3095   1.406       .  A
C3095      C3096   1.399       .  A
C3095      H3100   1.083       .  S
C3096      C3097   1.408       .  A
C3096      H3101   1.083       .  S
C3097      C3367   1.488       .  S
C3097      C3098   1.406       .  A
C3098      H3102   1.083   1_554  S
C3103      C3104   1.406   1_556  A
C3103      C3108   1.397       .  A
C3103      H3109   1.083       .  S
C3104      C3105   1.406       .  A
C3105      C3106   1.396       .  A
C3105      H3110   1.083       .  S
C3106      C3107   1.406   1_554  A
C3106      H3111   1.083       .  S
C3107      C3366   1.484       .  S
C3107      C3108   1.407       .  A
C3108      H3112   1.083       .  S
C3113      C3114   1.407       .  A
C3113      C3118   1.399       .  A
C3113      H3119   1.083       .  S
C3114      C3115   1.405       .  A
C3115      C3116   1.397       .  A
C3115      H3120   1.083       .  S
C3116      C3117   1.406       .  A
C3116      H3121   1.083       .  S
C3117      C3118   1.408       .  A
C3118      H3122   1.083       .  S
C3123      C3124   1.406       .  A
C3123      C3128   1.399       .  A
C3123      H3129   1.083       .  S
C3124      C3125   1.408       .  A
C3125      C3126   1.398       .  A
C3125      H3130   1.083       .  S
C3126      C3127   1.405       .  A
C3126      H3131   1.083       .  S
C3127      C3128   1.407       .  A
C3128      H3132   1.083       .  S
C3133      C3134   1.409       .  A
C3133      C3138   1.401       .  A
C3133      H3139   1.083       .  S
C3134      C3135   1.405       .  A
C3135      C3136   1.400       .  A
C3135      H3140   1.083       .  S
C3136      C3137   1.408       .  A
C3136      H3141   1.083       .  S
C3137      C3138   1.407       .  A
C3138      H3142   1.083       .  S
C3143      C3144   1.406       .  A
C3143      C3148   1.396       .  A
C3143      H3149   1.083       .  S
C3144      C3145   1.405       .  A
C3145      C3146   1.396       .  A
C3145      H3150   1.083       .  S
C3146      C3147   1.406       .  A
C3146      H3151   1.083       .  S
C3147      C3148   1.406       .  A
C3148      H3152   1.083       .  S
C3153      C3158   1.394       .  A
C3153      H3159   1.083       .  S
C3154      C3155   1.404       .  A
C3155      C3156   1.395       .  A
C3155      H3160   1.083       .  S
C3156      C3157   1.406       .  A
C3156      H3161   1.083       .  S
C3158      H3162   1.083       .  S
C3163      C3164   1.405       .  A
C3163      C3168   1.398       .  A
C3163      H3169   1.083       .  S
C3165      C3166   1.397       .  A
C3165      H3170   1.083       .  S
C3166      H3171   1.083       .  S
C3167      C3168   1.405       .  A
C3168      H3172   1.083       .  S
C3173      C3178   1.398       .  A
C3173      H3179   1.083       .  S
C3174      C3175   1.406       .  A
C3175      C3176   1.395       .  A
C3175      H3180   1.083       .  S
C3176      C3177   1.405       .  A
C3176      H3181   1.083       .  S
C3178      H3182   1.083       .  S
C3183      C3184   1.404       .  A
C3183      C3188   1.393       .  A
C3183      H3189   1.083       .  S
C3185      C3186   1.394       .  A
C3185      H3190   1.083       .  S
C3186      H3191   1.083       .  S
C3187      C3188   1.406       .  A
C3188      H3192   1.083       .  S
O3193      C3204   1.291       .  A
O3193     Eu3229   2.456       .  S
O3194      C3205   1.291       .  A
O3194     Eu3228   2.451       .  S
O3195      C3206   1.292       .  A
O3195     Eu3201   2.457       .  S
O3196      C3207   1.293       .  A
O3197      C3207   1.289       .  A
O3197     Eu3231   2.444       .  S
O3198      C3206   1.292       .  A
O3198     Eu3230   2.461       .  S
O3199      C3205   1.290       .  A
O3200      C3204   1.290       .  A
O3200     Eu3201   2.453       .  S
Eu3201     O3203   2.346       .  S
O3203     Eu3229   2.352       .  S
O3203     Eu3230   2.352       .  S
C3204      C3640   1.472       .  S
C3205      C3610   1.476       .  S
C3206      C3560   1.485       .  S
C3207      C3540   1.485       .  S
H3208      O3209   0.962       .  S
O3209     Eu3228   2.351       .  S
H3210      O3211   0.961       .  S
O3211     Eu3231   2.350       .  S
O3212      C3235   1.291       .  A
O3213      C3236   1.290       .  A
O3214      C3237   1.290       .  A
O3215      C3238   1.291       .  A
O3216      C3239   1.289       .  A
O3216     Eu3231   2.445       .  S
O3217      C3240   1.290       .  A
O3217     Eu3230   2.444       .  S
O3218      C3241   1.292       .  A
O3218     Eu3232   2.461       .  S
O3219      C3242   1.291       .  A
O3220      C3241   1.293       .  A
O3221      C3242   1.291       .  A
O3222      C3237   1.293       .  A
O3222     Eu3228   2.466       .  S
O3223      C3240   1.291       .  A
O3223     Eu3229   2.451       .  S
O3224      C3239   1.294       .  A
O3225      C3238   1.295       .  A
O3226      C3235   1.288       .  A
O3227      C3236   1.291       .  A
O3227     Eu3232   2.449       .  S
Eu3232     O3244   2.354       .  S
C3235      C3623   1.470       .  S
C3236      C3630   1.476       .  S
C3237      C3580   1.483       .  S
C3238      C3570   1.488       .  S
C3239      C3600   1.485       .  S
C3240      C3590   1.477       .  S
C3241      C3550   1.489       .  S
C3242      C3530   1.482       .  S
H3243      O3244   0.960       .  S
H3245      O3246   0.962       .  S
O3247      C3258   1.291       .  A
O3247     Eu3283   2.452       .  S
O3248      C3259   1.288       .  A
O3248     Eu3282   2.433       .  S
O3249      C3260   1.293       .  A
O3249     Eu3255   2.466       .  S
O3250      C3261   1.293       .  A
O3251      C3261   1.291       .  A
O3251     Eu3285   2.454       .  S
O3252      C3260   1.291       .  A
O3252     Eu3284   2.454       .  S
O3253      C3259   1.291       .  A
O3253     Eu3255   2.451       .  S
O3254      C3258   1.291       .  A
O3254     Eu3255   2.452       .  S
Eu3255     O3257   2.350       .  S
Eu3255     O3263   2.350       .  S
O3256     Eu3285   2.346       .  S
O3257     Eu3283   2.345       .  S
O3257     Eu3284   2.347       .  S
C3258      C3643   1.471       .  S
C3259      C3613   1.474       .  S
C3260      C3470   1.485       .  S
C3261      C3450   1.487       .  S
H3262      O3263   0.962       .  S
O3263     Eu3284   2.354       .  S
O3263     Eu3282   2.350       .  S
H3264      O3265   0.962       .  S
O3265     Eu3285   2.353       .  S
O3266      C3289   1.288       .  A
O3266     Eu3282   2.435       .  S
O3267      C3290   1.291       .  A
O3267     Eu3283   2.450       .  S
O3268      C3291   1.290       .  A
O3268     Eu3284   2.448       .  S
O3269      C3292   1.290       .  A
O3269     Eu3285   2.451       .  S
O3270      C3293   1.290       .  A
O3270     Eu3285   2.445       .  S
O3271      C3294   1.291       .  A
O3271     Eu3284   2.457       .  S
O3272      C3295   1.291       .  A
O3272     Eu3286   2.455       .  S
O3273      C3296   1.292       .  A
O3274      C3295   1.291       .  A
O3274     Eu3284   2.455       .  S
O3275      C3296   1.291       .  A
O3275     Eu3285   2.455       .  S
O3276      C3291   1.293       .  A
O3276     Eu3282   2.466       .  S
O3277      C3294   1.294       .  A
O3277     Eu3283   2.476       .  S
O3278      C3293   1.292       .  A
O3279      C3292   1.294       .  A
O3280      C3289   1.291       .  A
O3280     Eu3286   2.458       .  S
O3281      C3290   1.290       .  A
O3281     Eu3286   2.450       .  S
Eu3282     O3288   2.348       .  S
Eu3283     O3298   2.353       .  S
Eu3284     O3298   2.351       .  S
Eu3284     O3288   2.349       .  S
Eu3285     O3287   2.352       .  S
Eu3285     O3300   2.353       .  S
Eu3286     O3298   2.361       .  S
Eu3286     O3288   2.345       .  S
C3289      C3620   1.469       .  S
C3290      C3633   1.477       .  S
C3291      C3510   1.484       .  S
C3292      C3520   1.488       .  S
C3293      C3490   1.481       .  S
C3294      C3500   1.491       .  S
C3295      C3480   1.482       .  S
C3296      C3460   1.485       .  S
H3297      O3298   0.961       .  S
H3299      O3300   0.961       .  S
O3301      C3312   1.290       .  A
O3301     Eu3337   2.447       .  S
O3302      C3313   1.288       .  A
O3302     Eu3336   2.435       .  S
O3303      C3314   1.289       .  A
O3303     Eu3309   2.440   1_565  S
O3304      C3315   1.292       .  A
O3305      C3315   1.289       .  A
O3305     Eu3339   2.441       .  S
O3306      C3314   1.292       .  A
O3306     Eu3338   2.458       .  S
O3307      C3313   1.292       .  A
O3307     Eu3309   2.460       .  S
O3308      C3312   1.293       .  A
O3308     Eu3309   2.466       .  S
Eu3309     O3311   2.350   1_545  S
Eu3309     O3317   2.355   1_545  S
O3310     Eu3339   2.351       .  S
O3311     Eu3337   2.345   1_565  S
O3311     Eu3338   2.354       .  S
C3314      C3420   1.471       .  S
C3315      C3410   1.478       .  S
H3316      O3317   0.963       .  S
O3317     Eu3338   2.352       .  S
O3317     Eu3336   2.350   1_565  S
H3318      O3319   0.961       .  S
O3319     Eu3339   2.349       .  S
O3320      C3343   1.288   1_565  A
O3320     Eu3336   2.441   1_565  S
O3321      C3344   1.290       .  A
O3321     Eu3337   2.446   1_565  S
O3322      C3345   1.292       .  A
O3322     Eu3338   2.460       .  S
O3323      C3346   1.291       .  A
O3323     Eu3339   2.454       .  S
O3324      C3347   1.293       .  A
O3324     Eu3339   2.467       .  S
O3325      C3348   1.292       .  A
O3325     Eu3338   2.458       .  S
O3326      C3349   1.290       .  A
O3326     Eu3340   2.447   1_565  S
O3327      C3350   1.289       .  A
O3328      C3349   1.294       .  A
O3328     Eu3338   2.469       .  S
O3329      C3350   1.291       .  A
O3329     Eu3339   2.454       .  S
O3330      C3345   1.289       .  A
O3330     Eu3336   2.441   1_565  S
O3331      C3348   1.293       .  A
O3331     Eu3337   2.464   1_565  S
O3332      C3347   1.290       .  A
O3333      C3346   1.294       .  A
O3334      C3343   1.293       .  A
O3334     Eu3340   2.466       .  S
O3335      C3344   1.292       .  A
O3335     Eu3340   2.455   1_565  S
Eu3336     O3342   2.344   1_545  S
Eu3337     O3352   2.351   1_545  S
Eu3338     O3352   2.350       .  S
Eu3338     O3342   2.349       .  S
Eu3339     O3341   2.344       .  S
Eu3339     O3354   2.354       .  S
Eu3340     O3352   2.352   1_545  S
Eu3340     O3342   2.349   1_545  S
C3345      C3483   1.480       .  S
C3346      C3473   1.486       .  S
C3347      C3453   1.485       .  S
C3348      C3463   1.486       .  S
C3349      C3430   1.476       .  S
C3350      C3440   1.477       .  S
H3351      O3352   0.962       .  S
H3353      O3354   0.960       .  S
O3355      C3366   1.291       .  A
O3355     Eu3391   2.454   1_556  S
O3356      C3367   1.293   1_556  A
O3356     Eu3390   2.464   1_556  S
O3357      C3368   1.292       .  A
O3358      C3369   1.292       .  A
O3358     Eu3363   2.456   1_556  S
O3359      C3369   1.291       .  A
O3359     Eu3393   2.454       .  S
O3360      C3368   1.292       .  A
O3360     Eu3392   2.459       .  S
O3361      C3367   1.292       .  A
O3361     Eu3363   2.457       .  S
O3362      C3366   1.293       .  A
O3362     Eu3363   2.466   1_556  S
Eu3363     O3373   2.346   1_554  S
Eu3363     O3364   2.348   1_554  S
O3364     Eu3393   2.345       .  S
O3364     Eu3390   2.349   1_556  S
O3365     Eu3392   2.343       .  S
C3368      C3503   1.487       .  S
C3369      C3513   1.483       .  S
H3370      O3371   0.960       .  S
O3371     Eu3392   2.354       .  S
H3372      O3373   0.961       .  S
O3373     Eu3391   2.354   1_556  S
O3373     Eu3393   2.352       .  S
O3374      C3397   1.292       .  A
O3374     Eu3390   2.463       .  S
O3375      C3398   1.294       .  A
O3375     Eu3391   2.469   1_556  S
O3376      C3399   1.290       .  A
O3376     Eu3392   2.451       .  S
O3377      C3400   1.293       .  A
O3377     Eu3393   2.468       .  S
O3378      C3401   1.292       .  A
O3378     Eu3393   2.460       .  S
O3379      C3402   1.290       .  A
O3379     Eu3392   2.447       .  S
O3380      C3403   1.290       .  A
O3381      C3404   1.292       .  A
O3381     Eu3394   2.460   1_556  S
O3382      C3403   1.292       .  A
O3382     Eu3392   2.457       .  S
O3383      C3404   1.291       .  A
O3383     Eu3393   2.454       .  S
O3384      C3399   1.291       .  A
O3385      C3402   1.289       .  A
O3386      C3401   1.291       .  A
O3386     Eu3391   2.456   1_556  S
O3387      C3400   1.288       .  A
O3387     Eu3390   2.437   1_556  S
O3388      C3397   1.290       .  A
O3388     Eu3394   2.449       .  S
O3389      C3398   1.288       .  A
O3389     Eu3394   2.438   1_556  S
Eu3390     O3408   2.354   1_554  S
Eu3391     O3395   2.347   1_554  S
Eu3392     O3406   2.356       .  S
Eu3392     O3396   2.351       .  S
Eu3393     O3395   2.347       .  S
Eu3393     O3408   2.355       .  S
Eu3394     O3395   2.345   1_554  S
Eu3394     O3408   2.351   1_554  S
C3399      C3423   1.473       .  S
C3400      C3433   1.474       .  S
C3401      C3443   1.481       .  S
C3402      C3413   1.474       .  S
C3403      C3493   1.481       .  S
C3404      C3523   1.485       .  S
H3405      O3406   0.961       .  S
H3407      O3408   0.962       .  S
C3409      C3410   1.404       .  A
C3409      C3414   1.396       .  A
C3409      H3415   1.083       .  S
C3410      C3411   1.407       .  A
C3411      C3412   1.394       .  A
C3411      H3416   1.083       .  S
C3412      C3413   1.403       .  A
C3412      H3417   1.083       .  S
C3413      C3414   1.406       .  A
C3414      H3418   1.083       .  S
C3419      C3420   1.404       .  A
C3419      C3424   1.396       .  A
C3419      H3425   1.083       .  S
C3420      C3421   1.403       .  A
C3421      C3422   1.395       .  A
C3421      H3426   1.083       .  S
C3422      C3423   1.404       .  A
C3422      H3427   1.083       .  S
C3423      C3424   1.404       .  A
C3424      H3428   1.083       .  S
C3429      C3430   1.406       .  A
C3429      C3434   1.398       .  A
C3429      H3435   1.083       .  S
C3430      C3431   1.403       .  A
C3431      C3432   1.397       .  A
C3431      H3436   1.083       .  S
C3432      C3433   1.403       .  A
C3432      H3437   1.083       .  S
C3433      C3434   1.405       .  A
C3434      H3438   1.083       .  S
C3439      C3440   1.407       .  A
C3439      C3444   1.396       .  A
C3439      H3445   1.083       .  S
C3440      C3441   1.404       .  A
C3441      C3442   1.396       .  A
C3441      H3446   1.083       .  S
C3442      C3443   1.406       .  A
C3442      H3447   1.083       .  S
C3443      C3444   1.406       .  A
C3444      H3448   1.083       .  S
C3449      C3450   1.406       .  A
C3449      C3454   1.399       .  A
C3449      H3455   1.083       .  S
C3450      C3451   1.408       .  A
C3451      C3452   1.398       .  A
C3451      H3456   1.083       .  S
C3452      C3453   1.405       .  A
C3452      H3457   1.083       .  S
C3453      C3454   1.408       .  A
C3454      H3458   1.083       .  S
C3459      C3460   1.406       .  A
C3459      C3464   1.397       .  A
C3459      H3465   1.083       .  S
C3460      C3461   1.407       .  A
C3461      C3462   1.398       .  A
C3461      H3466   1.083       .  S
C3462      C3463   1.407       .  A
C3462      H3467   1.083       .  S
C3463      C3464   1.406       .  A
C3464      H3468   1.083       .  S
C3469      C3470   1.407       .  A
C3469      C3474   1.400       .  A
C3469      H3475   1.083       .  S
C3470      C3471   1.406       .  A
C3471      C3472   1.397       .  A
C3471      H3476   1.083       .  S
C3472      C3473   1.406       .  A
C3472      H3477   1.083       .  S
C3473      C3474   1.408       .  A
C3474      H3478   1.083       .  S
C3479      C3480   1.405       .  A
C3479      C3484   1.397       .  A
C3479      H3485   1.083       .  S
C3480      C3481   1.407       .  A
C3481      C3482   1.395       .  A
C3481      H3486   1.083       .  S
C3482      C3483   1.404       .  A
C3482      H3487   1.083       .  S
C3483      C3484   1.408       .  A
C3484      H3488   1.083       .  S
C3489      C3490   1.405       .  A
C3489      C3494   1.395       .  A
C3489      H3495   1.083       .  S
C3490      C3491   1.407       .  A
C3491      C3492   1.396       .  A
C3491      H3496   1.083       .  S
C3492      C3493   1.405       .  A
C3492      H3497   1.083       .  S
C3493      C3494   1.406       .  A
C3494      H3498   1.083       .  S
C3499      C3500   1.408       .  A
C3499      C3504   1.400       .  A
C3499      H3505   1.083       .  S
C3500      C3501   1.407       .  A
C3501      C3502   1.399       .  A
C3501      H3506   1.083       .  S
C3502      C3503   1.406       .  A
C3502      H3507   1.083       .  S
C3503      C3504   1.407       .  A
C3504      H3508   1.083       .  S
C3509      C3510   1.408       .  A
C3509      C3514   1.398       .  A
C3509      H3515   1.083       .  S
C3510      C3511   1.405       .  A
C3511      C3512   1.397       .  A
C3511      H3516   1.083       .  S
C3512      C3513   1.406       .  A
C3512      H3517   1.083       .  S
C3513      C3514   1.407       .  A
C3514      H3518   1.083       .  S
C3519      C3520   1.406       .  A
C3519      C3524   1.398       .  A
C3519      H3525   1.083       .  S
C3520      C3521   1.408       .  A
C3521      C3522   1.399       .  A
C3521      H3526   1.083       .  S
C3522      C3523   1.407       .  A
C3522      H3527   1.083       .  S
C3523      C3524   1.406       .  A
C3524      H3528   1.083       .  S
C3529      C3530   1.406       .  A
C3529      C3534   1.394       .  A
C3529      H3535   1.083       .  S
C3530      C3531   1.406       .  A
C3531      C3532   1.399       .  A
C3531      H3536   1.083       .  S
C3532      C3533   1.408       .  A
C3532      H3537   1.083       .  S
C3533      C3534   1.404       .  A
C3534      H3538   1.083       .  S
C3539      C3540   1.409       .  A
C3539      C3544   1.399       .  A
C3539      H3545   1.083       .  S
C3540      C3541   1.404       .  A
C3541      C3542   1.398       .  A
C3541      H3546   1.083       .  S
C3542      C3543   1.409       .  A
C3542      H3547   1.083       .  S
C3543      C3544   1.405       .  A
C3544      H3548   1.083       .  S
C3549      C3550   1.408       .  A
C3549      C3554   1.401       .  A
C3549      H3555   1.083       .  S
C3550      C3551   1.407       .  A
C3551      C3552   1.398       .  A
C3551      H3556   1.083       .  S
C3552      C3553   1.407       .  A
C3552      H3557   1.083       .  S
C3553      C3554   1.407       .  A
C3554      H3558   1.083       .  S
C3559      C3560   1.407       .  A
C3559      C3564   1.397       .  A
C3559      H3565   1.083       .  S
C3560      C3561   1.406       .  A
C3561      C3562   1.399       .  A
C3561      H3566   1.083       .  S
C3562      C3563   1.408       .  A
C3562      H3567   1.083       .  S
C3563      C3564   1.405       .  A
C3564      H3568   1.083       .  S
C3569      C3570   1.409       .  A
C3569      C3574   1.399       .  A
C3569      H3575   1.083       .  S
C3570      C3571   1.405       .  A
C3571      C3572   1.398       .  A
C3571      H3576   1.083       .  S
C3572      C3573   1.407       .  A
C3572      H3577   1.083       .  S
C3573      C3574   1.406       .  A
C3574      H3578   1.083       .  S
C3579      C3580   1.405       .  A
C3579      C3584   1.396       .  A
C3579      H3585   1.083       .  S
C3580      C3581   1.408       .  A
C3581      C3582   1.400       .  A
C3581      H3586   1.083       .  S
C3582      C3583   1.408       .  A
C3582      H3587   1.083       .  S
C3583      C3584   1.405       .  A
C3584      H3588   1.083       .  S
C3589      C3590   1.406       .  A
C3589      C3594   1.395       .  A
C3589      H3595   1.083       .  S
C3590      C3591   1.404       .  A
C3591      C3592   1.393       .  A
C3591      H3596   1.083       .  S
C3592      C3593   1.405       .  A
C3592      H3597   1.083       .  S
C3593      C3594   1.406       .  A
C3594      H3598   1.083       .  S
C3599      C3600   1.404       .  A
C3599      C3604   1.398       .  A
C3599      H3605   1.083       .  S
C3600      C3601   1.409       .  A
C3601      C3602   1.399       .  A
C3601      H3606   1.083       .  S
C3602      C3603   1.406       .  A
C3602      H3607   1.083       .  S
C3603      C3604   1.408       .  A
C3604      H3608   1.083       .  S
C3609      C3614   1.394       .  A
C3609      H3615   1.083       .  S
C3610      C3611   1.405       .  A
C3611      C3612   1.394       .  A
C3611      H3616   1.083       .  S
C3612      C3613   1.404       .  A
C3612      H3617   1.083       .  S
C3614      H3618   1.083       .  S
C3619      C3620   1.404       .  A
C3619      C3624   1.395       .  A
C3619      H3625   1.083       .  S
C3621      C3622   1.394       .  A
C3621      H3626   1.083       .  S
C3622      H3627   1.083       .  S
C3623      C3624   1.405       .  A
C3624      H3628   1.083       .  S
C3629      C3634   1.396       .  A
C3629      H3635   1.083       .  S
C3630      C3631   1.404       .  A
C3631      C3632   1.392       .  A
C3631      H3636   1.083       .  S
C3632      C3633   1.404       .  A
C3632      H3637   1.083       .  S
C3634      H3638   1.083       .  S
C3639      C3640   1.404       .  A
C3639      C3644   1.396       .  A
C3639      H3645   1.083       .  S
C3641      C3642   1.397       .  A
C3641      H3646   1.083       .  S
C3642      H3647   1.083       .  S
C3643      C3644   1.403       .  A
C3644      H3648   1.083       .  S
