geometry optimzed in LAMMPS
_audit_creation_date              2020-11-30 
_audit_creation_method            'lammps2cif' 
_symmetry_space_group_name_H-M    'P1' 
_symmetry_Int_Tables_number       1 
_symmetry_cell_setting            triclinic 
loop_ 
_symmetry_equiv_pos_as_xyz 
  x,y,z 
_cell_length_a                    31.74421434 
_cell_length_b                    26.82851962295601 
_cell_length_c                    29.630359592143968 
_cell_angle_alpha                 90.80707801052564 
_cell_angle_beta                  89.98282458487398 
_cell_angle_gamma                 89.99124853173666 
loop_ 
_atom_site_label 
_atom_site_type_symbol 
_atom_site_fract_x 
_atom_site_fract_y 
_atom_site_fract_z 
_atom_site_charge 
N1          N  0.56559287  0.49935350  0.98525417    -0.35800
N2          N  0.50033669  0.57566093  0.99044322    -0.56400
N3          N  0.43606799  0.49727530  0.98746901    -0.35800
N4          N  0.50116035  0.42103849  0.98839150    -0.56400
C5          C  0.59006666  0.54037395  0.99061038     0.27800
C6          C  0.59051929  0.45899967  0.99111656     0.27800
C7          C  0.41175285  0.53760834  0.99664337     0.27800
C8          C  0.41225057  0.45629573  0.99485495     0.27800
C9          C  0.53409575  0.60576795  0.98459608     0.36400
C10         C  0.46564557  0.60455957  0.98617770     0.36400
C11         C  0.53570255  0.39212498  0.98241242     0.36400
C12         C  0.46723880  0.39121192  0.98173249     0.36400
C13         C  0.63119441  0.52584237  0.99928161    -0.21100
C14         C  0.63146577  0.47461213  0.99970081    -0.21100
C15         C  0.37200301  0.52208370  0.00994519    -0.21100
C16         C  0.37231670  0.47080879  0.00881344    -0.21100
C17         C  0.52075875  0.65428875  0.97780043    -0.22200
C18         C  0.47747125  0.65352038  0.97874821    -0.22200
C19         C  0.52360684  0.34346280  0.97270587    -0.22200
C20         C  0.48029621  0.34292560  0.97215334    -0.22200
C21         C  0.57684961  0.59053426  0.98626661    -0.17500
C22         C  0.57803655  0.40844439  0.98667121    -0.17500
C23         C  0.42468360  0.40630956  0.98662538    -0.17500
C24         C  0.42344161  0.58794270  0.99038196    -0.17500
H25         H  0.65831668  0.54963951  0.00464056     0.15400
H26         H  0.65888046  0.45151070  0.00529314     0.15400
H27         H  0.34533195  0.54529344  0.01902200     0.15400
H28         H  0.34594036  0.44696174  0.01686166     0.15400
H29         H  0.54017695  0.68684769  0.97249923     0.13700
H30         H  0.45704983  0.68541834  0.97446218     0.13700
H31         H  0.54387672  0.31164872  0.96649923     0.13700
H32         H  0.46067784  0.31060097  0.96574319     0.13700
H33         H  0.53492684  0.49880780  0.97392009     0.26900
H34         H  0.46505519  0.49779705  0.97162336     0.26900
N35         N  0.06527834  0.99866805  0.01531526    -0.35800
N36         N  0.00089198  0.92136801  0.01228487    -0.56400
N37         N  0.93626063  0.99814034  0.01380420    -0.35800
N38         N  0.00052739  0.07532954  0.01265544    -0.56400
C39         C  0.08950684  0.95806224  0.00701222     0.27800
C40         C  0.08935290  0.03934487  0.00781965     0.27800
C41         C  0.91245864  0.95728511  0.00534516     0.27800
C42         C  0.91231246  0.03840592  0.00452243     0.27800
C43         C  0.03508831  0.89240627  0.01903674     0.36400
C44         C  0.96681154  0.89227985  0.01926967     0.36400
C45         C  0.03445584  0.10469853  0.02028158     0.36400
C46         C  0.96614316  0.10433538  0.01900189     0.36400
C47         C  0.12964305  0.97312059  0.99464016    -0.21100
C48         C  0.12954965  0.02439464  0.99516751    -0.21100
C49         C  0.87279939  0.97172992  0.99084131    -0.21100
C50         C  0.87271799  0.02295545  0.99028219    -0.21100
C51         C  0.02267070  0.84441536  0.02964239    -0.22200
C52         C  0.97937908  0.84436258  0.02986408    -0.22200
C53         C  0.02157989  0.15280678  0.03102525    -0.22200
C54         C  0.97827516  0.15257644  0.03021010    -0.22200
C55         C  0.07728100  0.90794795  0.01328798    -0.17500
C56         C  0.07681996  0.08948095  0.01475875    -0.17500
C57         C  0.92412019  0.08860106  0.01193263    -0.17500
C58         C  0.92460278  0.90756636  0.01337847    -0.17500
H59         H  0.15642598  0.94963610  0.98662545     0.15400
H60         H  0.15623386  0.04795503  0.98758829     0.15400
H61         H  0.84644390  0.94788259  0.98212710     0.15400
H62         H  0.84625232  0.04616616  0.98114036     0.15400
H63         H  0.04269039  0.81268009  0.03624760     0.13700
H64         H  0.95945420  0.81257316  0.03656927     0.13700
H65         H  0.04131908  0.18484128  0.03821036     0.13700
H66         H  0.95806572  0.18439754  0.03661798     0.13700
H67         H  0.03581635  0.99865607  0.03030662     0.26900
H68         H  0.96497605  0.99860441  0.03036624     0.26900
O69         O  0.25165258  0.28126564  0.92017123    -0.87600
C70         C  0.22347211  0.14219561  0.96634346     0.88500
Mg71       Mg  0.31102852  0.31795145  0.93222024     1.58100
O72         O  0.17122622  0.23984291  0.02318079    -0.87300
O73         O  0.18388440  0.29353105  0.92988430    -0.74600
C74         C  0.33933963  0.28993309  0.15199628     0.93500
O75         O  0.31432397  0.18906609  0.93501193    -0.74400
O76         O  0.36140990  0.29330579  0.11627017    -0.81900
Mg77       Mg  0.25437920  0.20595681  0.89447360     1.58000
C78         C  0.16916849  0.24484869  0.16260133     0.93400
O79         O  0.19736900  0.21814694  0.84848409    -0.80200
H80         H  0.13345718  0.29934874  0.02108985    -0.05500
C81         C  0.27862317  0.18940725  0.08175744     0.88400
O82         O  0.28274258  0.36342414  0.99065078    -0.74700
O83         O  0.21494830  0.18265684  0.94911384    -0.87500
O84         O  0.15825819  0.21572773  0.13026039    -0.80300
C85         C  0.10997956  0.12812873  0.01550158     0.93600
C86         C  0.15764305  0.21151732  0.84755747     0.93400
Mg87       Mg  0.24411674  0.29327174  0.10252729     1.58000
O88         O  0.29951300  0.28497385  0.15043781    -0.80200
O89         O  0.18502467  0.30883865  0.06066387    -0.74500
O90         O  0.11965611  0.14954895  0.97872131    -0.80300
O91         O  0.29625414  0.22858353  0.83632167    -0.82000
O92         O  0.38112815  0.34548076  0.02083136    -0.80300
C93         C  0.16164893  0.28279053  0.03482089     0.87800
O94         O  0.28469463  0.31423504  0.04861383    -0.87500
O95         O  0.24752085  0.21699077  0.07907598    -0.87600
O96         O  0.31490306  0.20291551  0.06855641    -0.74600
Mg97       Mg  0.15519126  0.22013203  0.95550385     1.58000
O98         O  0.12790042  0.13857460  0.05285311    -0.82000
H99         H  0.22371338  0.34577745  0.90529839    -0.05700
O100        O  0.32843156  0.25662135  0.97478541    -0.87300
H101        H  0.36604257  0.19682548  0.97473397    -0.05500
H102        H  0.26463915  0.38472342  0.05366623    -0.05700
C103        C  0.33779670  0.21399923  0.96176797     0.87800
C104        C  0.22015117  0.30823663  0.91752353     0.88400
C105        C  0.27730860  0.35537995  0.03228147     0.88500
H106        H  0.27452683  0.15206087  0.09427632    -0.05700
O107        O  0.21804876  0.13476324  0.00817887    -0.74700
Mg108      Mg  0.34420637  0.27561008  0.04320835     1.58000
H109        H  0.23696367  0.11286136  0.94553783    -0.05700
C110        C  0.32878634  0.25616845  0.83448718     0.93400
O111        O  0.37300468  0.35862287  0.94700182    -0.82000
C112        C  0.39117093  0.36776727  0.98460963     0.93500
O113        O  0.13677449  0.20235237  0.88315536    -0.81900
Mg114      Mg  0.18882866  0.17992878  0.06682822     1.58200
O115        O  0.34037123  0.28317647  0.86801615    -0.80300
O116        O  0.20143358  0.27268157  0.15991021    -0.82000
O117        O  0.75243152  0.21411301  0.07763101    -0.87600
C118        C  0.72514127  0.35409089  0.03436687     0.88500
Mg119      Mg  0.81145634  0.17713927  0.06471993     1.58100
O120        O  0.67139602  0.25815928  0.97612104    -0.87300
O121        O  0.68453615  0.20240469  0.06874095    -0.74600
C122        C  0.83724795  0.20281377  0.84442442     0.93500
O123        O  0.81570912  0.30520821  0.06045921    -0.74400
O124        O  0.85995928  0.19830660  0.87958268    -0.81900
Mg125      Mg  0.75660610  0.28959035  0.10273051     1.58000
C126        C  0.66963751  0.25870136  0.83719610     0.93400
O127        O  0.70110872  0.28115873  0.15060851    -0.80200
H128        H  0.63240487  0.19975169  0.97747450    -0.05500
C129        C  0.78029390  0.30565869  0.91575118     0.88400
O130        O  0.78200005  0.13141183  0.00674590    -0.74700
O131        O  0.71630477  0.31304550  0.04997411    -0.87500
O132        O  0.66129856  0.28834721  0.86986349    -0.80300
C133        C  0.61170788  0.37029622  0.98585309     0.93600
C134        C  0.66161196  0.28884107  0.15279904     0.93400
Mg135      Mg  0.74259529  0.20352732  0.89546480     1.58000
O136        O  0.79770569  0.21013485  0.84678957    -0.80200
O137        O  0.68371627  0.18930996  0.93774408    -0.74500
O138        O  0.62006663  0.34695410  0.02202690    -0.80300
O139        O  0.79882806  0.26687714  0.15948271    -0.82000
O140        O  0.87984234  0.14687576  0.97556151    -0.80300
C141        C  0.66089936  0.21571267  0.96386537     0.87800
O142        O  0.78368520  0.18011619  0.94836208    -0.87500
O143        O  0.74867859  0.27941192  0.92061476    -0.87600
O144        O  0.81667728  0.29076681  0.92713214    -0.74600
Mg145      Mg  0.65609580  0.27641101  0.04436495     1.58000
O146        O  0.63132577  0.36220015  0.94899951    -0.82000
H147        H  0.72438685  0.14959909  0.09227164    -0.05700
O148        O  0.82890442  0.23729834  0.02102919    -0.87300
H149        H  0.86655669  0.29695287  0.01952365    -0.05500
H150        H  0.76268889  0.10993104  0.94414581    -0.05700
C151        C  0.83858046  0.27999569  0.03335797     0.87800
C152        C  0.72084473  0.18733243  0.08050303     0.88400
C153        C  0.77597482  0.13923856  0.96512165     0.88500
H154        H  0.77670139  0.34284510  0.90269982    -0.05700
O155        O  0.72097980  0.36278015  0.99273791    -0.74700
Mg156      Mg  0.84402597  0.21723424  0.95274555     1.58000
H157        H  0.73833516  0.38254124  0.05635748    -0.05700
C158        C  0.83149016  0.23970827  0.16119318     0.93400
O159        O  0.87267804  0.13694463  0.04998041    -0.82000
C160        C  0.89038897  0.12645199  0.01252332     0.93500
O161        O  0.63938951  0.29420605  0.11742719    -0.81900
Mg162      Mg  0.69136080  0.31924648  0.93407266     1.58200
O163        O  0.84273721  0.21227826  0.12782422    -0.80300
O164        O  0.69927661  0.22691888  0.83886180    -0.82000
O165        O  0.74867874  0.71507369  0.92017324    -0.87600
C166        C  0.77828133  0.85538159  0.96624647     0.88500
Mg167      Mg  0.68951347  0.67868209  0.93234827     1.58100
O168        O  0.82972771  0.75918609  0.02372128    -0.87300
O169        O  0.81621868  0.70198241  0.93049587    -0.74600
C170        C  0.66188293  0.71249955  0.15193605     0.93500
O171        O  0.68644664  0.80787691  0.93775892    -0.74400
O172        O  0.63976318  0.70609794  0.11652109    -0.81900
Mg173      Mg  0.74574715  0.79048607  0.89620835     1.58000
C174        C  0.82980359  0.76163966  0.16317813     0.93400
O175        O  0.80174228  0.77966822  0.84887817    -0.80200
H176        H  0.86819183  0.70021682  0.02279590    -0.05500
C177        C  0.72153019  0.81158039  0.08161676     0.88400
O178        O  0.71836178  0.63451771  0.99035696    -0.74700
O179        O  0.78589941  0.81368724  0.95012704    -0.87500
O180        O  0.84137672  0.78921935  0.13076826    -0.80300
C181        C  0.89116658  0.86951293  0.01480408     0.93600
C182        C  0.84150100  0.78554894  0.84764819     0.93400
Mg183      Mg  0.75661742  0.70916985  0.10238642     1.58000
O184        O  0.70140291  0.71954137  0.14990435    -0.80200
O185        O  0.81616291  0.69171108  0.06164664    -0.74500
O186        O  0.88152657  0.84627524  0.97841294    -0.80300
O187        O  0.70309042  0.76831757  0.83874605    -0.82000
O188        O  0.62028890  0.65210320  0.02099763    -0.80300
C189        C  0.83964881  0.71694601  0.03594482     0.87800
O190        O  0.71651098  0.68534942  0.04846393    -0.87500
O191        O  0.75290647  0.78444948  0.07825973    -0.87600
O192        O  0.68517544  0.79683961  0.06941179    -0.74600
Mg193      Mg  0.84540177  0.77573670  0.95582796     1.58000
O194        O  0.87289324  0.86152756  0.05225194    -0.82000
H195        H  0.77604050  0.64975432  0.90533924    -0.05700
O196        O  0.67201915  0.74051603  0.97578906    -0.87300
H197        H  0.63474096  0.80056067  0.97734418    -0.05500
H198        H  0.73714051  0.61519812  0.05318116    -0.05700
C199        C  0.66284073  0.78313873  0.96382981     0.87800
C200        C  0.77993554  0.68760557  0.91763182     0.88400
C201        C  0.72412413  0.64381317  0.03196930     0.88500
H202        H  0.72532892  0.84935390  0.09414923    -0.05700
O203        O  0.78340636  0.86489984  0.00789297    -0.74700
Mg204      Mg  0.65657610  0.72284447  0.04380062     1.58000
H205        H  0.76565521  0.88390328  0.94466651    -0.05700
C206        C  0.67051261  0.74086650  0.83658126     0.93400
O207        O  0.62786803  0.63811198  0.94688867    -0.82000
C208        C  0.61007208  0.62932441  0.98452281     0.93500
O209        O  0.86313400  0.79125234  0.88347135    -0.81900
Mg210      Mg  0.81172277  0.82137914  0.06649805     1.58200
O211        O  0.65969325  0.71290597  0.86906335    -0.80300
O212        O  0.79811401  0.73299900  0.15973276    -0.82000
O213        O  0.24607146  0.78055683  0.08014746    -0.87600
C214        C  0.27454169  0.64096242  0.03310676     0.88500
Mg215      Mg  0.18784130  0.81787751  0.06649464     1.58100
O216        O  0.32904709  0.73718429  0.97831698    -0.87300
O217        O  0.31386945  0.79313239  0.07196702    -0.74600
C218        C  0.16442127  0.79122247  0.84542427     0.93500
O219        O  0.18320994  0.68958500  0.05852163    -0.74400
O220        O  0.14200680  0.79728572  0.88067954    -0.81900
Mg221      Mg  0.24129566  0.70486019  0.10269753     1.58000
C222        C  0.33284442  0.73575817  0.83907616     0.93400
O223        O  0.29577853  0.71256650  0.15263092    -0.80200
H224        H  0.36853005  0.79516482  0.98081069    -0.05500
C225        C  0.22161549  0.68878269  0.91510699     0.88400
O226        O  0.21916200  0.86310019  0.01047027    -0.74700
O227        O  0.28271320  0.68206773  0.05006206    -0.87500
O228        O  0.34216427  0.70709293  0.87149463    -0.80300
C229        C  0.38932240  0.62546757  0.98852852     0.93600
C230        C  0.33540250  0.70561930  0.15457031     0.93400
Mg231      Mg  0.25902337  0.79066581  0.89741099     1.58000
O232        O  0.20390702  0.78310216  0.84787806    -0.80200
O233        O  0.31779795  0.80537563  0.94040347    -0.74500
O234        O  0.37925954  0.64884133  0.02469332    -0.80300
O235        O  0.19744069  0.72725102  0.15854698    -0.82000
O236        O  0.12161620  0.84867827  0.97685387    -0.80300
C237        C  0.34005783  0.77928737  0.96667929     0.87800
O238        O  0.21780401  0.81464544  0.95058729    -0.87500
O239        O  0.25330431  0.71490143  0.92068339    -0.87600
O240        O  0.18514333  0.70412534  0.92621794    -0.74600
Mg241      Mg  0.34272511  0.71929717  0.04661422     1.58000
O242        O  0.37131120  0.63341321  0.95085583    -0.82000
H243        H  0.27347038  0.84531771  0.09680104    -0.05700
O244        O  0.17127753  0.75783765  0.02090112    -0.87300
H245        H  0.13325064  0.69858677  0.01674554    -0.05500
H246        H  0.24007610  0.88432291  0.94892975    -0.05700
C247        C  0.16104310  0.71519016  0.03173638     0.87800
C248        C  0.27742023  0.80764210  0.08406634     0.88400
C249        C  0.22586881  0.85526294  0.96874608     0.88500
H250        H  0.22516598  0.65142440  0.90148098    -0.05700
O251        O  0.28012772  0.63220340  0.99144715    -0.74700
Mg252      Mg  0.15732581  0.77799360  0.95313751     1.58000
H253        H  0.26080171  0.61244146  0.05390604    -0.05700
C254        C  0.16472965  0.75449896  0.15978946     0.93400
O255        O  0.12750910  0.85915376  0.05151251    -0.82000
C256        C  0.11069565  0.86971837  0.01391120     0.93500
O257        O  0.35782436  0.70178188  0.11911935    -0.81900
Mg258      Mg  0.31091776  0.67569402  0.93457014     1.58200
O259        O  0.15467589  0.78243046  0.12709747    -0.80300
O260        O  0.30247903  0.76657109  0.84114090    -0.82000
C261        C  0.97798429  0.19503489  0.45839291     0.03100
C262        C  0.02195628  0.20267503  0.46025196     0.03000
C263        C  0.04230863  0.20538190  0.50211355    -0.17500
C264        C  0.01932350  0.20031929  0.54210241     0.03100
C265        C  0.97536571  0.19224723  0.54015153     0.03000
C266        C  0.95512045  0.18883310  0.49829635    -0.17500
H267        H  0.92116779  0.18465872  0.49690055     0.05100
H268        H  0.07600782  0.21177429  0.50357890     0.05100
C269        C  0.97613510  0.79868002  0.46225104     0.03100
C270        C  0.02042092  0.79840027  0.45914090     0.03000
C271        C  0.04490388  0.80193459  0.49833548    -0.14700
C272        C  0.02564532  0.80505039  0.54077986     0.03100
C273        C  0.98119641  0.80367981  0.54395121     0.03000
C274        C  0.95679450  0.80162971  0.50457566    -0.17500
H275        H  0.92273597  0.80000441  0.50694418     0.05100
H276        H  0.07897952  0.80151788  0.49582730     0.05100
C277        C  0.52253079  0.70300760  0.45629049     0.03100
C278        C  0.47820795  0.69804295  0.45617156     0.03000
C279        C  0.45613080  0.69827147  0.49703693    -0.17500
C280        C  0.47747956  0.70340210  0.53818679     0.03100
C281        C  0.52182858  0.70843157  0.53828442     0.03000
C282        C  0.54397841  0.70735742  0.49743204    -0.17500
H283        H  0.57791987  0.71194004  0.49759440     0.05100
H284        H  0.42212434  0.69442577  0.49677633     0.05100
C285        C  0.47908923  0.30999221  0.45691935     0.03100
C286        C  0.52354037  0.31311668  0.45778565     0.03000
C287        C  0.54477578  0.31212209  0.49925385    -0.17500
C288        C  0.52247897  0.30762482  0.53991118     0.03100
C289        C  0.47796099  0.30429078  0.53880429     0.03000
C290        C  0.45672632  0.30684473  0.49748554    -0.17500
H291        H  0.42271076  0.30318216  0.49668050     0.05100
H292        H  0.57889351  0.31398120  0.49980181     0.05100
C293        C  0.43944196  0.65233254  0.34228073    -0.27400
C294        C  0.41503560  0.69309092  0.32882714     0.06200
C295        C  0.40982843  0.73412351  0.35820798     0.25800
C296        C  0.42926444  0.73460520  0.40039990    -0.11900
C297        C  0.45435255  0.69437897  0.41355949    -0.25900
C298        C  0.45890647  0.65281100  0.38459232     0.36600
C299        C  0.39498643  0.69321435  0.28410985     0.06200
F300        F  0.38713850  0.77438891  0.34532784    -0.19600
H301        H  0.42596715  0.76707463  0.42227072     0.16000
F302        F  0.48237500  0.61307303  0.39720689    -0.23400
H303        H  0.44336877  0.62031625  0.31999139     0.17800
C304        C  0.41942001  0.69524903  0.24474846     0.25800
C305        C  0.39989110  0.69924744  0.20270952    -0.11900
C306        C  0.35568912  0.70100041  0.19931934    -0.25900
C307        C  0.33135675  0.69760065  0.23904311     0.36700
C308        C  0.35100958  0.69404377  0.28096274    -0.27500
F309        F  0.46211005  0.69504050  0.24715456    -0.19700
H310        H  0.41945676  0.70155345  0.17286293     0.16000
F311        F  0.28860728  0.69752219  0.23765923    -0.23400
H312        H  0.33188176  0.69218464  0.31118763     0.17800
C313        C  0.38051420  0.67690341  0.73502399    -0.27400
C314        C  0.39323580  0.71878825  0.71054917     0.06200
C315        C  0.38711281  0.76668709  0.72975434     0.25800
C316        C  0.36792619  0.77220264  0.77198588    -0.11900
C317        C  0.35593732  0.73020212  0.79639469    -0.25900
C318        C  0.36271514  0.68242413  0.77782573     0.36600
C319        C  0.41277451  0.71225026  0.66528157     0.06200
F320        F  0.40024349  0.80818474  0.70817568    -0.19600
H321        H  0.36270667  0.80927873  0.78583717     0.16000
F322        F  0.35008381  0.64111798  0.80008137    -0.23400
H323        H  0.38357875  0.63973548  0.72070117     0.17800
C324        C  0.44319338  0.67488930  0.65714324     0.25800
C325        C  0.46253603  0.67060662  0.61499350    -0.11900
C326        C  0.45302418  0.70428974  0.58070576    -0.25900
C327        C  0.42184350  0.74056184  0.58815339     0.36700
C328        C  0.40153828  0.74399350  0.62986847    -0.27500
F329        F  0.45573010  0.64388430  0.69036288    -0.19700
H330        H  0.48605621  0.64190697  0.60952844     0.16000
F331        F  0.41232197  0.77400027  0.55574106    -0.23400
H332        H  0.37737584  0.77205807  0.63463022     0.17800
C333        C  0.07894144  0.78520830  0.24509412    -0.27400
C334        C  0.09710123  0.76722531  0.28492016     0.06200
C335        C  0.13590863  0.74210033  0.28250424     0.25800
C336        C  0.15647431  0.73615236  0.24128867    -0.11900
C337        C  0.13930496  0.75581350  0.20162223    -0.25900
C338        C  0.09986443  0.77986726  0.20375737     0.36600
C339        C  0.07628719  0.77552282  0.32909577     0.06200
F340        F  0.15511712  0.72542483  0.32034058    -0.19600
H341        H  0.18688987  0.71784237  0.24090708     0.16000
F342        F  0.08170791  0.79876917  0.16621087    -0.23400
H343        H  0.04865923  0.80380682  0.24606161     0.17800
C344        C  0.06146654  0.82309650  0.34212329     0.25800
C345        C  0.04389971  0.83067912  0.38490589    -0.11900
C346        C  0.04128172  0.79119682  0.41520178    -0.25900
C347        C  0.05576343  0.74378062  0.40231870     0.36700
C348        C  0.07276665  0.73595223  0.35943823    -0.27500
F349        F  0.06502204  0.86247206  0.31410300    -0.19700
H350        H  0.03234782  0.86731431  0.39451151     0.16000
F351        F  0.05264612  0.70492401  0.43097736    -0.23400
H352        H  0.08318653  0.69884182  0.34987091     0.17800
C353        C  0.08508101  0.81098689  0.75089975    -0.27400
C354        C  0.10982435  0.80064380  0.71260446     0.06200
C355        C  0.15233749  0.78780954  0.71824251     0.25800
C356        C  0.16952211  0.78456971  0.76142873    -0.11900
C357        C  0.14483990  0.79432723  0.80003495    -0.25900
C358        C  0.10224849  0.80784453  0.79427158     0.36600
C359        C  0.09112043  0.80328194  0.66694901     0.06200
F360        F  0.17758937  0.77957583  0.68191508    -0.19600
H361        H  0.20244637  0.77459532  0.76450268     0.16000
F362        F  0.07717798  0.81842103  0.83027375    -0.23400
H363        H  0.05225460  0.82113307  0.74716685     0.17800
C364        C  0.09434023  0.76274910  0.63645592     0.25800
C365        C  0.07526051  0.76496361  0.59406738    -0.11900
C366        C  0.05202723  0.80708034  0.58185825    -0.25900
C367        C  0.04968092  0.84813136  0.61171944     0.36700
C368        C  0.06904352  0.84612617  0.65399646    -0.27500
F369        F  0.11391935  0.71999758  0.64857845    -0.19700
H370        H  0.07658249  0.73271049  0.57169534     0.16000
F371        F  0.02766558  0.88948812  0.60038041    -0.23400
H372        H  0.06645613  0.87782194  0.67688262     0.17800
C373        C  0.59779331  0.69765361  0.74240273    -0.27400
C374        C  0.60460178  0.73430547  0.70991806     0.06200
C375        C  0.63098461  0.77488228  0.72036926     0.25800
C376        C  0.65142833  0.77751468  0.76211828    -0.11900
C377        C  0.64559675  0.74004290  0.79431434    -0.25900
C378        C  0.61799674  0.70031261  0.78419186     0.36600
C379        C  0.58509170  0.72885641  0.66483317     0.06200
F380        F  0.63836279  0.81083974  0.68956447    -0.19600
H381        H  0.67244254  0.80852320  0.76892102     0.16000
F382        F  0.61178175  0.66282847  0.81375426    -0.23400
H383        H  0.57715075  0.66641744  0.73508003     0.17800
C384        C  0.59048613  0.68459719  0.63942313     0.25800
C385        C  0.57100494  0.67890946  0.59744717    -0.11900
C386        C  0.54537319  0.71683862  0.58063413    -0.25900
C387        C  0.54045379  0.76141471  0.60551728     0.36700
C388        C  0.56035452  0.76739968  0.64730018    -0.27500
F389        F  0.61468537  0.64693467  0.65519352    -0.19700
H390        H  0.57488451  0.64433870  0.57856649     0.16000
F391        F  0.51594845  0.79871968  0.58959300    -0.23400
H392        H  0.55569381  0.80163304  0.66646869     0.17800
C393        C  0.58050971  0.70941305  0.24576628    -0.27400
C394        C  0.60634798  0.70924175  0.28418540     0.06200
C395        C  0.65025210  0.70914176  0.27894903     0.25800
C396        C  0.66788977  0.71020010  0.23585513    -0.11900
C397        C  0.64211506  0.71090219  0.19714134    -0.25900
C398        C  0.59807487  0.71001582  0.20256382     0.36600
C399        C  0.58709609  0.70949613  0.32950216     0.06200
F400        F  0.67606342  0.70930016  0.31548598    -0.19600
H401        H  0.70190283  0.71051323  0.23291288     0.16000
F402        F  0.57189835  0.71025369  0.16636493    -0.23400
H403        H  0.54656684  0.70890727  0.24931432     0.17800
C404        C  0.55767760  0.74641105  0.34168800     0.25800
C405        C  0.53784284  0.74500945  0.38362942    -0.11900
C406        C  0.54655981  0.70643022  0.41371438    -0.25900
C407        C  0.57696141  0.67042018  0.40222580     0.36700
C408        C  0.59712404  0.67203020  0.36033295    -0.27500
F409        F  0.54828530  0.78387382  0.31304879    -0.19700
H410        H  0.51511714  0.77364523  0.39244716     0.16000
F411        F  0.58585243  0.63271691  0.43076852    -0.23400
H412        H  0.61965788  0.64322176  0.35138143     0.17800
C413        C  0.85932604  0.79119671  0.72134006    -0.27400
C414        C  0.90333848  0.79130565  0.71880673     0.06200
C415        C  0.92719789  0.78882171  0.75862359     0.25800
C416        C  0.90698184  0.78676737  0.80047260    -0.11900
C417        C  0.86271758  0.78671172  0.80317650    -0.25900
C418        C  0.83905458  0.78868834  0.76293194     0.36600
C419        C  0.92370874  0.79454071  0.67429774     0.06200
F420        F  0.96993227  0.78958374  0.75709103    -0.19600
H421        H  0.92602301  0.78534173  0.83075056     0.16000
F422        F  0.79629368  0.78893402  0.76347477    -0.23400
H423        H  0.84056844  0.79286097  0.69084857     0.17800
C424        C  0.95153121  0.75720446  0.65924514     0.25800
C425        C  0.96917242  0.75978658  0.61627034    -0.11900
C426        C  0.96005620  0.80008495  0.58816886    -0.25900
C427        C  0.93183286  0.83708493  0.60293770     0.36700
C428        C  0.91370494  0.83417734  0.64574494    -0.27500
F429        F  0.96074834  0.71768071  0.68559147    -0.19700
H430        H  0.99016663  0.73038292  0.60486828     0.16000
F431        F  0.92258018  0.87641372  0.57637909    -0.23400
H432        H  0.89210031  0.86309619  0.65688037     0.17800
C433        C  0.90543968  0.80088169  0.25653494    -0.27400
C434        C  0.88937305  0.77433942  0.29320136     0.06200
C435        C  0.85466804  0.74268560  0.28659850     0.25800
C436        C  0.83645546  0.73772081  0.24394693    -0.11900
C437        C  0.85221928  0.76445657  0.20702529    -0.25900
C438        C  0.88717448  0.79610494  0.21378117     0.36600
C439        C  0.90896444  0.78011624  0.33817154     0.06200
F440        F  0.83745353  0.71785026  0.32169628    -0.19600
H441        H  0.80925624  0.71365190  0.24018749     0.16000
F442        F  0.90348496  0.82297101  0.17945647    -0.23400
H443        H  0.93231801  0.82532932  0.26106896     0.17800
C444        C  0.92342219  0.73828840  0.36170175     0.25800
C445        C  0.94381532  0.74450381  0.40313267    -0.11900
C446        C  0.95002789  0.79234570  0.42150680    -0.25900
C447        C  0.93503147  0.83407996  0.39856237     0.36700
C448        C  0.91467465  0.82795144  0.35707431    -0.27500
F449        F  0.91959085  0.69172412  0.34364418    -0.19700
H450        H  0.95599189  0.71215139  0.42029236     0.16000
F451        F  0.94150408  0.88069543  0.41554601    -0.23400
H452        H  0.90374372  0.86056126  0.33938505     0.17800
C453        C  0.64777417  0.29734288  0.27989174    -0.27400
C454        C  0.60403931  0.30198011  0.28396125     0.06200
C455        C  0.57906049  0.30262422  0.24483253     0.25800
C456        C  0.59778096  0.29786648  0.20223202    -0.11900
C457        C  0.64173486  0.29291768  0.19800019    -0.25900
C458        C  0.66661135  0.29319609  0.23752615     0.36600
C459        C  0.58499624  0.30613916  0.32928417     0.06200
F460        F  0.53657011  0.30695793  0.24788126    -0.19600
H461        H  0.57783166  0.29807546  0.17259078     0.16000
F462        F  0.70926812  0.29030398  0.23557369    -0.23400
H463        H  0.66748829  0.29757622  0.30974189     0.17800
C464        C  0.59220427  0.26909866  0.36147635     0.25800
C465        C  0.57387271  0.27302995  0.40420741    -0.11900
C466        C  0.54807900  0.31380215  0.41534632    -0.25900
C467        C  0.54211888  0.35177378  0.38373935     0.36700
C468        C  0.56024281  0.34769857  0.34087902    -0.27500
F469        F  0.61556587  0.22817665  0.35091981    -0.19700
H470        H  0.57830451  0.24319835  0.42801137     0.16000
F471        F  0.51809660  0.39219273  0.39410262    -0.23400
H472        H  0.55501004  0.37695795  0.31668807     0.17800
C473        C  0.55690836  0.32671180  0.66148088    -0.27400
C474        C  0.58600069  0.28766318  0.66666273     0.06200
C475        C  0.59563684  0.25706957  0.62905363     0.25800
C476        C  0.57576418  0.26480555  0.58765120    -0.11900
C477        C  0.54619900  0.30324380  0.58284165    -0.25900
C478        C  0.53777927  0.33507726  0.61983783     0.36600
C479        C  0.60662081  0.27980487  0.71101444     0.06200
F480        F  0.62465893  0.22011462  0.63206411    -0.19600
H481        H  0.58281610  0.24006509  0.55944209     0.16000
F482        F  0.51105631  0.37423788  0.61572250    -0.23400
H483        H  0.54867800  0.35066750  0.68985019     0.17800
C484        C  0.62277346  0.32053374  0.73596756     0.25800
C485        C  0.64183029  0.31308164  0.77770257    -0.11900
C486        C  0.64637044  0.26493188  0.79482190    -0.25900
C487        C  0.63081039  0.22402721  0.77001741     0.36700
C488        C  0.61047714  0.23155480  0.72873170    -0.27500
F489        F  0.62167321  0.36739006  0.71929896    -0.19700
H490        H  0.65450580  0.34494536  0.79602490     0.16000
F491        F  0.63462220  0.17711267  0.78608479    -0.23400
H492        H  0.59766279  0.19965673  0.71064583     0.17800
C493        C  0.86226239  0.25701117  0.28421253    -0.27400
C494        C  0.89717033  0.22529009  0.28725200     0.06200
C495        C  0.91227950  0.20112289  0.24816233     0.25800
C496        C  0.89176161  0.20743135  0.20689439    -0.11900
C497        C  0.85580486  0.23792302  0.20391123    -0.25900
C498        C  0.84170408  0.26345056  0.24309281     0.36600
C499        C  0.91721229  0.21723007  0.33148109     0.06200
F500        F  0.94695123  0.17158431  0.24991840    -0.19600
H501        H  0.90361655  0.18760728  0.17743919     0.16000
F502        F  0.80733676  0.29354075  0.24228841    -0.23400
H503        H  0.85025026  0.27593990  0.31408906     0.17800
C504        C  0.93185631  0.25795537  0.35729878     0.25800
C505        C  0.95074375  0.25016163  0.39902864    -0.11900
C506        C  0.95500080  0.20184761  0.41576411    -0.25900
C507        C  0.93956504  0.16107607  0.39067540     0.36700
C508        C  0.92100104  0.16878771  0.34853022    -0.27500
F509        F  0.92886794  0.30511602  0.34162405    -0.19700
H510        H  0.96271162  0.28181827  0.41817652     0.16000
F511        F  0.94327738  0.11403589  0.40647446    -0.23400
H512        H  0.90934812  0.13707326  0.32925883     0.17800
C513        C  0.92712318  0.23732338  0.64924142    -0.27400
C514        C  0.91143966  0.19288006  0.66696559     0.06200
C515        C  0.91341110  0.14867913  0.64093288     0.25800
C516        C  0.93277665  0.14877717  0.59851157    -0.11900
C517        C  0.94992922  0.19296578  0.58176952    -0.25900
C518        C  0.94589195  0.23752737  0.60676048     0.36600
C519        C  0.89318349  0.19331739  0.71267707     0.06200
F520        F  0.89817901  0.10525024  0.65730851    -0.19600
H521        H  0.93573596  0.11421459  0.57943347     0.16000
F522        F  0.96095316  0.28100180  0.59031535    -0.23400
H523        H  0.92498317  0.27184350  0.66852144     0.17800
C524        C  0.91728265  0.20902549  0.75003683     0.25800
C525        C  0.89925899  0.21108313  0.79306417    -0.11900
C526        C  0.85668330  0.19874704  0.79921489    -0.25900
C527        C  0.83262837  0.18311679  0.76155899     0.36700
C528        C  0.85097319  0.18000680  0.71881412    -0.27500
F529        F  0.95821647  0.22237622  0.74480971    -0.19700
H530        H  0.91832855  0.22340382  0.82140156     0.16000
F531        F  0.79144556  0.17042197  0.76597852    -0.23400
H532        H  0.83196552  0.16822770  0.69023262     0.17800
C533        C  0.39885997  0.30445037  0.74095139    -0.27400
C534        C  0.39126420  0.26963525  0.70621613     0.06200
C535        C  0.36491211  0.22871232  0.71446892     0.25800
C536        C  0.34558588  0.22365339  0.75664988    -0.11900
C537        C  0.35253157  0.25906229  0.79140466    -0.25900
C538        C  0.37983065  0.29939652  0.78310977     0.36600
C539        C  0.41079273  0.27689026  0.66150525     0.06200
F540        F  0.35663316  0.19475510  0.68124177    -0.19600
H541        H  0.32461071  0.19242103  0.76185142     0.16000
F542        F  0.38693275  0.33524243  0.81498304    -0.23400
H543        H  0.41938096  0.33600577  0.73521121     0.17800
C544        C  0.40450593  0.32153071  0.63806388     0.25800
C545        C  0.42539040  0.32965187  0.59731062    -0.11900
C546        C  0.45326507  0.29375081  0.57986110    -0.25900
C547        C  0.45838825  0.24839249  0.60235818     0.36700
C548        C  0.43727117  0.24008840  0.64293592    -0.27500
F549        F  0.37824472  0.35724786  0.65471142    -0.19700
H550        H  0.42085948  0.36455367  0.58001467     0.16000
F551        F  0.48418516  0.21247372  0.58522609    -0.23400
H552        H  0.44240194  0.20547083  0.66049060     0.17800
C553        C  0.42180340  0.28998727  0.24497519    -0.27400
C554        C  0.39673417  0.29703938  0.28359103     0.06200
C555        C  0.35296563  0.30204317  0.27865005     0.25800
C556        C  0.33473118  0.29970960  0.23581131    -0.11900
C557        C  0.35972939  0.29260388  0.19696404    -0.25900
C558        C  0.40364487  0.28790213  0.20201177     0.36600
C559        C  0.41644717  0.29922162  0.32882298     0.06200
F560        F  0.32770777  0.30797593  0.31532381    -0.19600
H561        H  0.30085596  0.30353417  0.23314584     0.16000
F562        F  0.42906052  0.28057768  0.16568024    -0.23400
H563        H  0.45561932  0.28634771  0.24812101     0.17800
C564        C  0.44404232  0.26141232  0.34268505     0.25800
C565        C  0.46331775  0.26445940  0.38495327    -0.11900
C566        C  0.45582778  0.30545280  0.41379372    -0.25900
C567        C  0.42764639  0.34274335  0.40046614     0.36700
C568        C  0.40815064  0.33961905  0.35822066    -0.27500
F569        F  0.45199650  0.22130691  0.31555919    -0.19700
H570        H  0.48462060  0.23511174  0.39505610     0.16000
F571        F  0.42032196  0.38301206  0.42758266    -0.23400
H572        H  0.38729158  0.36934184  0.34798261     0.17800
C573        C  0.13398699  0.23895716  0.72501471    -0.27400
C574        C  0.09510781  0.21496967  0.71880471     0.06200
C575        C  0.07587996  0.19187059  0.75590859     0.25800
C576        C  0.09594513  0.19160138  0.79790620    -0.11900
C577        C  0.13552949  0.21421331  0.80369495    -0.25900
C578        C  0.15396986  0.23887584  0.76695767     0.36600
C579        C  0.07609397  0.21184936  0.67313240     0.06200
F580        F  0.03772845  0.16946649  0.75158274    -0.19600
H581        H  0.08083674  0.17280645  0.82568452     0.16000
F582        F  0.19132246  0.26308190  0.77143951    -0.23400
H583        H  0.14957359  0.25672116  0.69698332     0.17800
C584        C  0.07338089  0.25403426  0.64544359     0.25800
C585        C  0.05633251  0.24976671  0.60203019    -0.11900
C586        C  0.04131872  0.20370431  0.58594439    -0.25900
C587        C  0.04441896  0.16158606  0.61320868     0.36700
C588        C  0.06184414  0.16562904  0.65629837    -0.27500
F589        F  0.08601822  0.29955096  0.66077851    -0.19700
H590        H  0.05360792  0.28265607  0.58143567     0.16000
F591        F  0.03046838  0.11656314  0.59805286    -0.23400
H592        H  0.06455408  0.13240415  0.67642715     0.17800
C593        C  0.07099590  0.17878861  0.34589911    -0.27400
C594        C  0.08534382  0.22660588  0.33475416     0.06200
C595        C  0.08028793  0.26602530  0.36616521     0.25800
C596        C  0.06121687  0.25751080  0.40786605    -0.11900
C597        C  0.04643439  0.20990486  0.41850955    -0.25900
C598        C  0.05165092  0.17044140  0.38743254     0.36600
C599        C  0.10534908  0.23475915  0.29029442     0.06200
F600        F  0.09217431  0.31309544  0.35582923    -0.19600
H601        H  0.05656878  0.28841082  0.43127070     0.16000
F602        F  0.03765004  0.12401831  0.39718925    -0.23400
H603        H  0.07482216  0.14786352  0.32235406     0.17800
C604        C  0.14484951  0.25806774  0.28716835     0.25800
C605        C  0.16436956  0.26310969  0.24525306    -0.11900
C606        C  0.14532362  0.24432820  0.20563939    -0.25900
C607        C  0.10532579  0.22188312  0.20872185     0.36700
C608        C  0.08563853  0.21725862  0.25069628    -0.27500
F609        F  0.16564286  0.27361585  0.32484262    -0.19700
H610        H  0.19534400  0.27998427  0.24414708     0.16000
F611        F  0.08534760  0.20395947  0.17139123    -0.23400
H612        H  0.05502768  0.19952032  0.25237955     0.17800
loop_ 
_geom_bond_atom_site_label_1 
_geom_bond_atom_site_label_2 
_geom_bond_distance 
_geom_bond_site_symmetry_2 
_ccdc_geom_bond_type 
N1            C6   1.354       .  A
N1            C5   1.355       .  A
N1           H33   1.030       .  S
N2            C9   1.355       .  A
N2           C10   1.354       .  A
N3            C8   1.355       .  A
N3            C7   1.353       .  A
N3           H34   1.033       .  S
N4           C11   1.353       .  A
N4           C12   1.355       .  A
C5           C13   1.388       .  A
C5           C21   1.417       .  A
C6           C22   1.417       .  A
C6           C14   1.388       .  A
C7           C15   1.388   1_556  A
C7           C24   1.415       .  A
C8           C23   1.416       .  A
C8           C16   1.387   1_556  A
C9           C21   1.418       .  A
C9           C17   1.386       .  A
C10          C24   1.418       .  A
C10          C18   1.387       .  A
C11          C19   1.387       .  A
C11          C22   1.419       .  A
C12          C20   1.386       .  A
C12          C23   1.417       .  A
C13          C14   1.375       .  A
C13          H25   1.082   1_556  S
C14          H26   1.082   1_556  S
C15          C16   1.376       .  A
C15          H27   1.083       .  S
C16          H28   1.082       .  S
C17          C18   1.375       .  A
C17          H29   1.082       .  S
C18          H30   1.082       .  S
C19          C20   1.375       .  A
C19          H31   1.082       .  S
C20          H32   1.082       .  S
C21         C208   1.483       .  S
C22         C133   1.480       .  S
C23         C112   1.484       .  S
C24         C229   1.480       .  S
N35          C40   1.353   1_565  A
N35          C39   1.353       .  A
N35          H67   1.035       .  S
N36          C43   1.351       .  A
N36          C44   1.352   1_455  A
N37          C42   1.352   1_565  A
N37          C41   1.352       .  A
N37          H68   1.035       .  S
N38          C45   1.352       .  A
N38          C46   1.352   1_455  A
C39          C47   1.387   1_554  A
C39          C55   1.414       .  A
C40          C56   1.415       .  A
C40          C48   1.387   1_554  A
C41          C49   1.387   1_554  A
C41          C58   1.412       .  A
C42          C57   1.412       .  A
C42          C50   1.388   1_554  A
C43          C55   1.414       .  A
C43          C51   1.387       .  A
C44          C58   1.413       .  A
C44          C52   1.386       .  A
C45          C53   1.387       .  A
C45          C56   1.414       .  A
C46          C54   1.386       .  A
C46          C57   1.414       .  A
C47          C48   1.375   1_565  A
C47          H59   1.082       .  S
C48          H60   1.082       .  S
C49          C50   1.375   1_565  A
C49          H61   1.082       .  S
C50          H62   1.082       .  S
C51          C52   1.374   1_455  A
C51          H63   1.082       .  S
C52          H64   1.082       .  S
C53          C54   1.375   1_455  A
C53          H65   1.082       .  S
C54          H66   1.082       .  S
C55         C256   1.476       .  S
C56          C85   1.478       .  S
C57         C160   1.476       .  S
C58         C181   1.474       .  S
O69         Mg71   2.154       .  S
O69         Mg77   2.151       .  S
O69         C104   1.237       .  S
C70         H109   1.081       .  S
C70          O83   1.236       .  S
C70         O107   1.270   1_556  A
Mg71        O100   2.159       .  S
Mg71        O115   2.303       .  S
Mg71        O111   2.289       .  S
Mg71         O82   2.287       .  S
O72        Mg114   2.151       .  S
O72         Mg97   2.129   1_554  S
O72          C93   1.236       .  S
O73         C104   1.272       .  A
O73         Mg97   2.308       .  S
C74         C557   1.482       .  S
C74          O76   1.274       .  A
C74          O88   1.272       .  A
O75         C103   1.272       .  A
O75         Mg77   2.299       .  S
O76        Mg108   2.276       .  S
Mg77         O83   2.146       .  S
Mg77         O91   2.266       .  S
Mg77         O79   2.292       .  S
C78         C606   1.483       .  S
C78         O116   1.271       .  A
C78          O84   1.276       .  A
O79          C86   1.274       .  A
H80          C93   1.081       .  S
C81         H106   1.081       .  S
C81          O95   1.237       .  S
C81          O96   1.271       .  A
O82         C105   1.267   1_556  A
O83         Mg97   2.154       .  S
O84        Mg114   2.312       .  S
C85          O98   1.272       .  A
C85          O90   1.277   1_554  A
C86         C577   1.480       .  S
C86         O113   1.272       .  A
Mg87         O94   2.133       .  S
Mg87         O95   2.155       .  S
Mg87         O88   2.273       .  S
Mg87         O89   2.291       .  S
Mg87        O116   2.249       .  S
O89          C93   1.269       .  A
O90         Mg97   2.317       .  S
O91         C110   1.272       .  A
O92         C112   1.276   1_554  A
O92        Mg108   2.316       .  S
O94        Mg108   2.159       .  S
O94         C105   1.234       .  S
O95        Mg114   2.141       .  S
O96        Mg108   2.297       .  S
Mg97        O113   2.266       .  S
O98        Mg114   2.265       .  S
H99         C104   1.081       .  S
O100       Mg108   2.143   1_556  S
O100        C103   1.238       .  S
H101        C103   1.081       .  S
H102        C105   1.081       .  S
O107       Mg114   2.300       .  S
C110        C537   1.485       .  S
C110        O115   1.276       .  A
O111        C112   1.276       .  A
O117       Mg119   2.152       .  S
O117       Mg125   2.151       .  S
O117        C152   1.237       .  S
C118        H157   1.081       .  S
C118        O131   1.233       .  S
C118        O155   1.265   1_554  A
Mg119       O148   2.156       .  S
Mg119       O163   2.307       .  S
Mg119       O159   2.262       .  S
Mg119       O130   2.296       .  S
O120       Mg162   2.167       .  S
O120       Mg145   2.130   1_556  S
O120        C141   1.236       .  S
O121        C152   1.272       .  A
O121       Mg145   2.306       .  S
C122        C526   1.477       .  S
C122        O124   1.274       .  A
C122        O136   1.272       .  A
O123        C151   1.270       .  A
O123       Mg125   2.297       .  S
O124       Mg156   2.276       .  S
Mg125       O131   2.122       .  S
Mg125       O139   2.242       .  S
Mg125       O127   2.275       .  S
C126        C486   1.468       .  S
C126        O164   1.271       .  A
C126        O132   1.272       .  A
O127        C134   1.272       .  A
H128        C141   1.081       .  S
C129        H154   1.081       .  S
C129        O143   1.236       .  S
C129        O144   1.269       .  A
O130        C153   1.269   1_554  A
O131       Mg145   2.155       .  S
O132       Mg162   2.275       .  S
C133        O146   1.273       .  A
C133        O138   1.277   1_556  A
C134        C457   1.483       .  S
C134        O161   1.273       .  A
Mg135       O142   2.140       .  S
Mg135       O143   2.167       .  S
Mg135       O136   2.275       .  S
Mg135       O137   2.285       .  S
Mg135       O164   2.265       .  S
O137        C141   1.269       .  A
O138       Mg145   2.316       .  S
O139        C158   1.269       .  A
O140        C160   1.276   1_556  A
O140       Mg156   2.313       .  S
O142       Mg156   2.162       .  S
O142        C153   1.235       .  S
O143       Mg162   2.144       .  S
O144       Mg156   2.294       .  S
Mg145       O161   2.273       .  S
O146       Mg162   2.267       .  S
H147        C152   1.081       .  S
O148       Mg156   2.141   1_554  S
O148        C151   1.236       .  S
H149        C151   1.081       .  S
H150        C153   1.081       .  S
O155       Mg162   2.283       .  S
C158        C497   1.484       .  S
C158        O163   1.275       .  A
O159        C160   1.272       .  A
O165       Mg167   2.150       .  S
O165       Mg173   2.156       .  S
O165        C200   1.238       .  S
C166        H205   1.081       .  S
C166        O179   1.234       .  S
C166        O203   1.267   1_556  A
Mg167       O196   2.158       .  S
Mg167       O211   2.303       .  S
Mg167       O207   2.283       .  S
Mg167       O178   2.292       .  S
O168       Mg210   2.158       .  S
O168       Mg193   2.125   1_554  S
O168        C189   1.235       .  S
O169        C200   1.272       .  A
O169       Mg193   2.301       .  S
C170        C397   1.480       .  S
C170        O172   1.272       .  A
C170        O184   1.270       .  A
O171        C199   1.270       .  A
O171       Mg173   2.293       .  S
O172       Mg204   2.271       .  S
Mg173       O179   2.130       .  S
Mg173       O187   2.249       .  S
Mg173       O175   2.280       .  S
C174        C437   1.482       .  S
C174        O212   1.269       .  A
C174        O180   1.275       .  A
O175        C182   1.273       .  A
H176        C189   1.081       .  S
C177        H202   1.081       .  S
C177        O191   1.237       .  S
C177        O192   1.271       .  A
O178        C201   1.268   1_556  A
O179       Mg193   2.153       .  S
O180       Mg210   2.303       .  S
C181        O194   1.273       .  A
C181        O186   1.275   1_554  A
C182        C417   1.480       .  S
C182        O209   1.272       .  A
Mg183       O190   2.134       .  S
Mg183       O191   2.155       .  S
Mg183       O184   2.263       .  S
Mg183       O185   2.287       .  S
Mg183       O212   2.237       .  S
O185        C189   1.268       .  A
O186       Mg193   2.304       .  S
O187        C206   1.271       .  A
O188        C208   1.276   1_554  A
O188       Mg204   2.313       .  S
O190       Mg204   2.157       .  S
O190        C201   1.234       .  S
O191       Mg210   2.145       .  S
O192       Mg204   2.302       .  S
Mg193       O209   2.261       .  S
O194       Mg210   2.263       .  S
H195        C200   1.081       .  S
O196       Mg204   2.134   1_556  S
O196        C199   1.237       .  S
H197        C199   1.081       .  S
H198        C201   1.081       .  S
O203       Mg210   2.290       .  S
C206        C377   1.481       .  S
C206        O211   1.276       .  A
O207        C208   1.275       .  A
O213       Mg215   2.143       .  S
O213       Mg221   2.152       .  S
O213        C248   1.237       .  S
C214        H253   1.081       .  S
C214        O227   1.233       .  S
C214        O251   1.266   1_554  A
Mg215       O244   2.153       .  S
Mg215       O259   2.299       .  S
Mg215       O255   2.259       .  S
Mg215       O226   2.296       .  S
O216       Mg258   2.162       .  S
O216       Mg241   2.131   1_556  S
O216        C237   1.236       .  S
O217        C248   1.271       .  A
O217       Mg241   2.299       .  S
C218        C357   1.485       .  S
C218        O220   1.272       .  A
C218        O232   1.274       .  A
O219        C247   1.270       .  A
O219       Mg221   2.295       .  S
O220       Mg252   2.268       .  S
Mg221       O227   2.123       .  S
Mg221       O235   2.238       .  S
Mg221       O223   2.284       .  S
C222        C317   1.467       .  S
C222        O260   1.271       .  A
C222        O228   1.274       .  A
O223        C230   1.273       .  A
H224        C237   1.081       .  S
C225        H250   1.081       .  S
C225        O239   1.236       .  S
C225        O240   1.270       .  A
O226        C249   1.269   1_554  A
O227       Mg241   2.154       .  S
O228       Mg258   2.287       .  S
C229        O242   1.275       .  A
C229        O234   1.275   1_556  A
C230        C306   1.481       .  S
C230        O257   1.272       .  A
Mg231       O238   2.140       .  S
Mg231       O239   2.163       .  S
Mg231       O232   2.291       .  S
Mg231       O233   2.291       .  S
Mg231       O260   2.251       .  S
O233        C237   1.269       .  A
O234       Mg241   2.303       .  S
O235        C254   1.270       .  A
O236        C256   1.275   1_556  A
O236       Mg252   2.310       .  S
O238       Mg252   2.159       .  S
O238        C249   1.235       .  S
O239       Mg258   2.152       .  S
O240       Mg252   2.302       .  S
Mg241       O257   2.257       .  S
O242       Mg258   2.283       .  S
H243        C248   1.081       .  S
O244       Mg252   2.133   1_554  S
O244        C247   1.236       .  S
H245        C247   1.081       .  S
H246        C249   1.081       .  S
O251       Mg258   2.283       .  S
C254        C337   1.479       .  S
C254        O259   1.274       .  A
O255        C256   1.271       .  A
C261        C262   1.412   1_655  A
C261        C266   1.399       .  A
C261        C506   1.472       .  S
C262        C263   1.400       .  A
C262        C597   1.476       .  S
C263        C264   1.400       .  A
C263        H268   1.084       .  S
C264        C265   1.413   1_455  A
C264        C586   1.477       .  S
C265        C266   1.399       .  A
C265        C517   1.474       .  S
C266        H267   1.084       .  S
C269        C270   1.409   1_655  A
C269        C274   1.397       .  A
C269        C446   1.472       .  S
C270        C271   1.400       .  A
C270        C346   1.471       .  S
C271        C272   1.400       .  A
C271        H276   1.084       .  S
C272        C273   1.415   1_455  A
C272        C366   1.478       .  S
C273        C274   1.401       .  A
C273        C426   1.476       .  S
C274        H275   1.084       .  S
C277        C278   1.413       .  A
C277        C282   1.400       .  A
C277        C406   1.478       .  S
C278        C279   1.399       .  A
C278        C297   1.475       .  S
C279        C280   1.400       .  A
C279        H284   1.084       .  S
C280        C281   1.414       .  A
C280        C326   1.480       .  S
C281        C282   1.400       .  A
C281        C386   1.475       .  S
C282        H283   1.084       .  S
C285        C286   1.414       .  A
C285        C290   1.399       .  A
C285        C566   1.480       .  S
C286        C287   1.402       .  A
C286        C466   1.479       .  S
C287        C288   1.404       .  A
C287        H292   1.084       .  S
C288        C289   1.416       .  A
C288        C477   1.484       .  S
C289        C290   1.400       .  A
C289        C546   1.478       .  S
C290        H291   1.085       .  S
C293        C294   1.403       .  A
C293        C298   1.398       .  A
C293        H303   1.083       .  S
C294        C295   1.404       .  A
C294        C299   1.470       .  S
C295        C296   1.394       .  A
C295        F300   1.358       .  S
C296        C297   1.401       .  A
C296        H301   1.083       .  S
C297        C298   1.405       .  A
C298        F302   1.357       .  S
C299        C304   1.402       .  A
C299        C308   1.399       .  A
C304        C305   1.397       .  A
C304        F309   1.357       .  S
C305        C306   1.408       .  A
C305        H310   1.083       .  S
C306        C307   1.412       .  A
C307        C308   1.395       .  A
C307        F311   1.358       .  S
C308        H312   1.084       .  S
C313        C314   1.405       .  A
C313        C318   1.394       .  A
C313        H323   1.083       .  S
C314        C315   1.411       .  A
C314        C319   1.486       .  S
C315        C316   1.397       .  A
C315        F320   1.357       .  S
C316        C317   1.400       .  A
C316        H321   1.083       .  S
C317        C318   1.404       .  A
C318        F322   1.358       .  S
C319        C324   1.410       .  A
C319        C328   1.407       .  A
C324        C325   1.395       .  A
C324        F329   1.357       .  S
C325        C326   1.402       .  A
C325        H330   1.083       .  S
C326        C327   1.403       .  A
C327        C328   1.396       .  A
C327        F331   1.358       .  S
C328        H332   1.083       .  S
C333        C334   1.405       .  A
C333        C338   1.399       .  A
C333        H343   1.083       .  S
C334        C335   1.405       .  A
C334        C339   1.480       .  S
C335        C336   1.392       .  A
C335        F340   1.358       .  S
C336        C337   1.405       .  A
C336        H341   1.083       .  S
C337        C338   1.409       .  A
C338        F342   1.358       .  S
C339        C344   1.409       .  A
C339        C348   1.405       .  A
C344        C345   1.397       .  A
C344        F349   1.357       .  S
C345        C346   1.401       .  A
C345        H350   1.083       .  S
C346        C347   1.400       .  A
C347        C348   1.393       .  A
C347        F351   1.357       .  S
C348        H352   1.083       .  S
C353        C354   1.404       .  A
C353        C358   1.400       .  A
C353        H363   1.083       .  S
C354        C355   1.403       .  A
C354        C359   1.480       .  S
C355        C356   1.395       .  A
C355        F360   1.357       .  S
C356        C357   1.408       .  A
C356        H361   1.083       .  S
C357        C358   1.411       .  A
C358        F362   1.357       .  S
C359        C364   1.408       .  A
C359        C368   1.404       .  A
C364        C365   1.397       .  A
C364        F369   1.357       .  S
C365        C366   1.401       .  A
C365        H370   1.083       .  S
C366        C367   1.405       .  A
C367        C368   1.397       .  A
C367        F371   1.357       .  S
C368        H372   1.083       .  S
C373        C374   1.402       .  A
C373        C378   1.396       .  A
C373        H383   1.083       .  S
C374        C375   1.405       .  A
C374        C379   1.478       .  S
C375        C376   1.398       .  A
C375        F380   1.358       .  S
C376        C377   1.408       .  A
C376        H381   1.083       .  S
C377        C378   1.409       .  A
C378        F382   1.357       .  S
C379        C384   1.407       .  A
C379        C388   1.404       .  A
C384        C385   1.396       .  A
C384        F389   1.357       .  S
C385        C386   1.400       .  A
C385        H390   1.083       .  S
C386        C387   1.405       .  A
C387        C388   1.397       .  A
C387        F391   1.357       .  S
C388        H392   1.083       .  S
C393        C394   1.403       .  A
C393        C398   1.396       .  A
C393        H403   1.083       .  S
C394        C395   1.402       .  A
C394        C399   1.475       .  S
C395        C396   1.395       .  A
C395        F400   1.358       .  S
C396        C397   1.410       .  A
C396        H401   1.083       .  S
C397        C398   1.407       .  A
C398        F402   1.357       .  S
C399        C404   1.405       .  A
C399        C408   1.404       .  A
C404        C405   1.394       .  A
C404        F409   1.358       .  S
C405        C406   1.403       .  A
C405        H410   1.083       .  S
C406        C407   1.404       .  A
C407        C408   1.398       .  A
C407        F411   1.357       .  S
C408        H412   1.083       .  S
C413        C414   1.399       .  A
C413        C418   1.393       .  A
C413        H423   1.084       .  S
C414        C415   1.405       .  A
C414        C419   1.472       .  S
C415        C416   1.398       .  A
C415        F420   1.357       .  S
C416        C417   1.407       .  A
C416        H421   1.083       .  S
C417        C418   1.411       .  A
C418        F422   1.358       .  S
C419        C424   1.403       .  A
C419        C428   1.405       .  A
C424        C425   1.394       .  A
C424        F429   1.357       .  S
C425        C426   1.404       .  A
C425        H430   1.083       .  S
C426        C427   1.402       .  A
C427        C428   1.396       .  A
C427        F431   1.357       .  S
C428        H432   1.083       .  S
C433        C434   1.403       .  A
C433        C438   1.398       .  A
C433        H443   1.084       .  S
C434        C435   1.403       .  A
C434        C439   1.477       .  S
C435        C436   1.395       .  A
C435        F440   1.358       .  S
C436        C437   1.408       .  A
C436        H441   1.083       .  S
C437        C438   1.410       .  A
C438        F442   1.357       .  S
C439        C444   1.406       .  A
C439        C448   1.405       .  A
C444        C445   1.396       .  A
C444        F449   1.358       .  S
C445        C446   1.401       .  A
C445        H450   1.083       .  S
C446        C447   1.401       .  A
C447        C448   1.397       .  A
C447        F451   1.357       .  S
C448        H452   1.083       .  S
C453        C454   1.399       .  A
C453        C458   1.393       .  A
C453        H463   1.084       .  S
C454        C455   1.405       .  A
C454        C459   1.475       .  S
C455        C456   1.399       .  A
C455        F460   1.357       .  S
C456        C457   1.407       .  A
C456        H461   1.083       .  S
C457        C458   1.413       .  A
C458        F462   1.357       .  S
C459        C464   1.406       .  A
C459        C468   1.403       .  A
C464        C465   1.396       .  A
C464        F469   1.358       .  S
C465        C466   1.402       .  A
C465        H470   1.083       .  S
C466        C467   1.406       .  A
C467        C468   1.397       .  A
C467        F471   1.357       .  S
C468        H472   1.083       .  S
C473        C474   1.407       .  A
C473        C478   1.396       .  A
C473        H483   1.083       .  S
C474        C475   1.408       .  A
C474        C479   1.486       .  S
C475        C476   1.398       .  A
C475        F480   1.357       .  S
C476        C477   1.403       .  A
C476        H481   1.083       .  S
C477        C478   1.406       .  A
C478        F482   1.357       .  S
C479        C484   1.408       .  A
C479        C488   1.409       .  A
C484        C485   1.394       .  A
C484        F489   1.358       .  S
C485        C486   1.402       .  A
C485        H490   1.084       .  S
C486        C487   1.402       .  A
C487        C488   1.400       .  A
C487        F491   1.357       .  S
C488        H492   1.083       .  S
C493        C494   1.401       .  A
C493        C498   1.395       .  A
C493        H503   1.084       .  S
C494        C495   1.404       .  A
C494        C499   1.476       .  S
C495        C496   1.398       .  A
C495        F500   1.358       .  S
C496        C497   1.408       .  A
C496        H501   1.083       .  S
C497        C498   1.412       .  A
C498        F502   1.357       .  S
C499        C504   1.404       .  A
C499        C508   1.406       .  A
C504        C505   1.393       .  A
C504        F509   1.357       .  S
C505        C506   1.401       .  A
C505        H510   1.084       .  S
C506        C507   1.402       .  A
C507        C508   1.399       .  A
C507        F511   1.357       .  S
C508        H512   1.083       .  S
C513        C514   1.401       .  A
C513        C518   1.393       .  A
C513        H523   1.083       .  S
C514        C515   1.407       .  A
C514        C519   1.473       .  S
C515        C516   1.399       .  A
C515        F520   1.357       .  S
C516        C517   1.402       .  A
C516        H521   1.083       .  S
C517        C518   1.403       .  A
C518        F522   1.357       .  S
C519        C524   1.406       .  A
C519        C528   1.399       .  A
C524        C525   1.398       .  A
C524        F529   1.357       .  S
C525        C526   1.404       .  A
C525        H530   1.083       .  S
C526        C527   1.411       .  A
C527        C528   1.395       .  A
C527        F531   1.358       .  S
C528        H532   1.083       .  S
C533        C534   1.401       .  A
C533        C538   1.396       .  A
C533        H543   1.084       .  S
C534        C535   1.405       .  A
C534        C539   1.478       .  S
C535        C536   1.400       .  A
C535        F540   1.358       .  S
C536        C537   1.409       .  A
C536        H541   1.083       .  S
C537        C538   1.411       .  A
C538        F542   1.357       .  S
C539        C544   1.407       .  A
C539        C548   1.403       .  A
C544        C545   1.397       .  A
C544        F549   1.357       .  S
C545        C546   1.401       .  A
C545        H550   1.083       .  S
C546        C547   1.405       .  A
C547        C548   1.397       .  A
C547        F551   1.357       .  S
C548        H552   1.083       .  S
C553        C554   1.404       .  A
C553        C558   1.398       .  A
C553        H563   1.082       .  S
C554        C555   1.404       .  A
C554        C559   1.480       .  S
C555        C556   1.396       .  A
C555        F560   1.358       .  S
C556        C557   1.409       .  A
C556        H561   1.083       .  S
C557        C558   1.408       .  A
C558        F562   1.357       .  S
C559        C564   1.406       .  A
C559        C568   1.406       .  A
C564        C565   1.395       .  A
C564        F569   1.358       .  S
C565        C566   1.403       .  A
C565        H570   1.083       .  S
C566        C567   1.403       .  A
C567        C568   1.398       .  A
C567        F571   1.357       .  S
C568        H572   1.083       .  S
C573        C574   1.403       .  A
C573        C578   1.396       .  A
C573        H583   1.083       .  S
C574        C575   1.409       .  A
C574        C579   1.483       .  S
C575        C576   1.398       .  A
C575        F580   1.357       .  S
C576        C577   1.405       .  A
C576        H581   1.083       .  S
C577        C578   1.409       .  A
C578        F582   1.358       .  S
C579        C584   1.410       .  A
C579        C588   1.405       .  A
C584        C585   1.399       .  A
C584        F589   1.358       .  S
C585        C586   1.402       .  A
C585        H590   1.083       .  S
C586        C587   1.402       .  A
C587        C588   1.394       .  A
C587        F591   1.357       .  S
C588        H592   1.083       .  S
C593        C594   1.405       .  A
C593        C598   1.396       .  A
C593        H603   1.083       .  S
C594        C595   1.408       .  A
C594        C599   1.481       .  S
C595        C596   1.397       .  A
C595        F600   1.357       .  S
C596        C597   1.401       .  A
C596        H601   1.083       .  S
C597        C598   1.403       .  A
C598        F602   1.357       .  S
C599        C604   1.405       .  A
C599        C608   1.405       .  A
C604        C605   1.396       .  A
C604        F609   1.358       .  S
C605        C606   1.407       .  A
C605        H610   1.083       .  S
C606        C607   1.409       .  A
C607        C608   1.399       .  A
C607        F611   1.357       .  S
C608        H612   1.084       .  S
