geometry optimzed in LAMMPS
_audit_creation_date              2020-11-30 
_audit_creation_method            'lammps2cif' 
_symmetry_space_group_name_H-M    'P1' 
_symmetry_Int_Tables_number       1 
_symmetry_cell_setting            triclinic 
loop_ 
_symmetry_equiv_pos_as_xyz 
  x,y,z 
_cell_length_a                    33.05165873 
_cell_length_b                    33.052133954624736 
_cell_length_c                    25.76384921460667 
_cell_angle_alpha                 89.9391643321996 
_cell_angle_beta                  89.94066326199048 
_cell_angle_gamma                 120.74056029350767 
loop_ 
_atom_site_label 
_atom_site_type_symbol 
_atom_site_fract_x 
_atom_site_fract_y 
_atom_site_fract_z 
_atom_site_charge 
In1        In  0.98686051  0.22204553  0.66332130     1.36900
C2          C  0.98742161  0.22707688  0.56032788     0.77100
O3          O  0.06632320  0.26314418  0.65849360    -0.61300
O4          O  0.03214201  0.19402766  0.68995259    -0.52300
C5          C  0.97645915  0.27340731  0.73574472     0.69800
O6          O  0.98052181  0.28398524  0.68824625    -0.47100
C7          C  0.90477891  0.14281427  0.66952238     0.74500
O8          O  0.99213907  0.26064333  0.58825280    -0.59000
O9          O  0.94242415  0.14614568  0.68541765    -0.49100
O10         O  0.98300554  0.19220516  0.58503263    -0.55400
C11         C  0.07018443  0.22952459  0.67564771     0.84700
O12         O  0.97964953  0.23800537  0.74643954    -0.57300
O13         O  0.90867541  0.18054183  0.65292217    -0.60600
In14       In  0.18970931  0.22158743  0.65994708     1.36900
C15         C  0.19358489  0.22603752  0.55698808     0.77100
O16         O  0.22686130  0.18116090  0.65059805    -0.61300
O17         O  0.15836279  0.14626324  0.68406483    -0.52300
C18         C  0.25272894  0.27431890  0.73066608     0.69800
O19         O  0.25833229  0.28514418  0.68321738    -0.47100
C20         C  0.11433506  0.22926965  0.67467197     0.74500
O21         O  0.22485132  0.25857811  0.58454213    -0.59000
O22         O  0.11581324  0.19320379  0.68704431    -0.49100
O23         O  0.16104072  0.19245089  0.58204777    -0.55400
C24         C  0.19308431  0.14352113  0.66864361     0.84700
O25         O  0.21418972  0.23818487  0.74223362    -0.57300
O26         O  0.15255366  0.26308677  0.65769443    -0.60600
In27       In  0.18876240  0.01734663  0.65936621     1.36900
C28         C  0.19310330  0.01825170  0.55646464     0.77100
O29         O  0.14932801  0.93813294  0.65257261    -0.61300
O30         O  0.11521118  0.97054071  0.68840061    -0.52300
C31         C  0.25110086  0.02451342  0.72901367     0.69800
O32         O  0.25592702  0.01996952  0.68126874    -0.47100
C33         C  0.19294317  0.09927326  0.66866606     0.74500
O34         O  0.22482326  0.01849098  0.58398657    -0.59000
O35         O  0.15798043  0.06107538  0.68375487    -0.49100
O36         O  0.15989686  0.01723446  0.58152091    -0.55400
C37         C  0.11205960  0.93312776  0.67215440     0.84700
O38         O  0.21386963  0.02367970  0.74137785    -0.57300
O39         O  0.22669716  0.09597947  0.65097465    -0.60600
In40       In  0.98315011  0.81177968  0.65814042     1.36900
C41         C  0.98348841  0.80961043  0.55504890     0.77100
O42         O  0.90474955  0.77383701  0.64772378    -0.61300
O43         O  0.93832059  0.84085715  0.68424653    -0.52300
C44         C  0.97597924  0.74930864  0.72792096     0.69800
O45         O  0.97956166  0.74401830  0.68004579    -0.47100
C46         C  0.06719640  0.88836860  0.67176228     0.74500
O47         O  0.98307833  0.77738568  0.58191309    -0.59000
O48         O  0.02952030  0.88531985  0.68700283    -0.49100
O49         O  0.98428635  0.84231998  0.58085220    -0.55400
C50         C  0.90069422  0.80657636  0.66708165     0.84700
O51         O  0.97761174  0.78691454  0.74020942    -0.57300
O52         O  0.06245065  0.85112514  0.65248575    -0.60600
In53       In  0.77932671  0.81124217  0.65499149     1.36900
C54         C  0.77507165  0.80899492  0.55202737     0.77100
O55         O  0.73871473  0.84925708  0.65416992    -0.61300
O56         O  0.81044221  0.88633861  0.67756698    -0.52300
C57         C  0.72506725  0.74909777  0.72593174     0.69800
O58         O  0.71741827  0.74121679  0.67804117    -0.47100
C59         C  0.85642873  0.80641281  0.66625364     0.74500
O60         O  0.74133343  0.77865609  0.57932713    -0.59000
O61         O  0.85285785  0.83992717  0.68410727    -0.49100
O62         O  0.80982906  0.83953043  0.57734719    -0.55400
C63         C  0.77395005  0.88789209  0.66782191     0.84700
O64         O  0.75869399  0.78927982  0.73751662    -0.57300
O65         O  0.81986525  0.77423718  0.64471674    -0.60600
In66       In  0.78202506  0.01564507  0.65673039     1.36900
C67         C  0.77664979  0.01624411  0.55380999     0.77100
O68         O  0.82349813  0.09414550  0.64876044    -0.61300
O69         O  0.85702731  0.05993083  0.68202216    -0.52300
C70         C  0.72961596  0.02337345  0.72954504     0.69800
O71         O  0.71823790  0.01810038  0.68228212    -0.47100
C72         C  0.77448164  0.93238335  0.66842651     0.74500
O73         O  0.74637070  0.01785972  0.58224802    -0.59000
O74         O  0.81159057  0.97067845  0.67811988    -0.49100
O75         O  0.80839822  0.01385560  0.57794289    -0.55400
C76         C  0.86048800  0.09797449  0.66749026     0.84700
O77         O  0.76617375  0.02216971  0.73991898    -0.57300
O78         O  0.73961125  0.93609659  0.65589197    -0.60600
In79       In  0.19009468  0.01995221  0.39677567     1.36900
C80         C  0.19357773  0.01908749  0.49969343     0.77100
O81         O  0.23022003  0.09906944  0.40399300    -0.61300
O82         O  0.16322341  0.06538985  0.36749425    -0.52300
C83         C  0.24486103  0.01436381  0.32538060     0.69800
O84         O  0.25427520  0.01724953  0.37309694    -0.47100
C85         C  0.11094747  0.93786930  0.38748706     0.74500
O86         O  0.22619134  0.02108198  0.47212340    -0.59000
O87         O  0.11434400  0.97624644  0.37457162    -0.49100
O88         O  0.16032331  0.01787267  0.47468290    -0.55400
C89         C  0.19764380  0.10312300  0.38403673     0.84700
O90         O  0.20861739  0.01579438  0.31413995    -0.57300
O91         O  0.14863224  0.94104028  0.40299345    -0.60600
In92       In  0.98286296  0.81528008  0.39520480     1.36900
C93         C  0.98294284  0.81013753  0.49820027     0.77100
O94         O  0.06161310  0.85531621  0.40273753    -0.61300
O95         O  0.02813397  0.89133491  0.37431731    -0.52300
C96         C  0.98870053  0.76102575  0.32332881     0.69800
O97         O  0.98233405  0.74969181  0.37062659    -0.47100
C98         C  0.89994757  0.80827304  0.38104225     0.74500
O99         O  0.98240503  0.77863340  0.46997000    -0.59000
O100        O  0.93798630  0.84272571  0.36491996    -0.49100
O101        O  0.98298166  0.84315646  0.47379645    -0.55400
C102        C  0.06594803  0.89356042  0.38737541     0.84700
O103        O  0.99057066  0.79905087  0.31254710    -0.57300
O104        O  0.90370966  0.77571887  0.40157571    -0.60600
In105      In  0.78007732  0.81570737  0.39231700     1.36900
C106        C  0.77527913  0.81002318  0.49521717     0.77100
O107        O  0.81770629  0.77513434  0.39812572    -0.61300
O108        O  0.85403149  0.84378110  0.36523348    -0.52300
C109        C  0.71944697  0.76177408  0.32003897     0.69800
O110        O  0.71251032  0.75151897  0.36759254    -0.47100
C111        C  0.77641699  0.89353890  0.38351803     0.74500
O112        O  0.74324160  0.77879343  0.46712255    -0.59000
O113        O  0.81165993  0.89127854  0.36917239    -0.49100
O114        O  0.80877046  0.84322530  0.47071305    -0.55400
C115        C  0.85578625  0.80842891  0.38020834     0.84700
O116        O  0.75779940  0.79845885  0.30930256    -0.57300
O117        O  0.74240686  0.85563327  0.40068669    -0.60600
In118      In  0.18902005  0.22204205  0.39734429     1.36900
C119        C  0.19371329  0.22595316  0.50017989     0.77100
O120        O  0.15023132  0.26126911  0.40335832    -0.61300
O121        O  0.11275555  0.19002975  0.37814741    -0.52300
C122        C  0.24198541  0.28088301  0.32316174     0.69800
O123        O  0.25178811  0.29004734  0.37059545    -0.47100
C124        C  0.19719252  0.14709837  0.38431224     0.74500
O125        O  0.22594086  0.25762266  0.47241411    -0.59000
O126        O  0.16185585  0.14881819  0.36920383    -0.49100
O127        O  0.16041082  0.19305134  0.47536096    -0.55400
C128        C  0.11139946  0.22631933  0.38989449     0.84700
O129        O  0.20623283  0.24144331  0.31374142    -0.57300
O130        O  0.23000368  0.18484725  0.40331983    -0.60600
In131      In  0.98592427  0.22309102  0.40045774     1.36900
C132        C  0.98684232  0.22712332  0.50349802     0.77100
O133        O  0.90686931  0.18409250  0.40630889    -0.61300
O134        O  0.93973285  0.15019352  0.37071138    -0.52300
C135        C  0.99023492  0.28262934  0.32861895     0.69800
O136        O  0.98320067  0.28704066  0.37583167    -0.47100
C137        C  0.06740667  0.22664968  0.39071600     0.74500
O138        O  0.99114552  0.26080897  0.47604294    -0.59000
O139        O  0.02871987  0.19102314  0.37832268    -0.49100
O140        O  0.98185653  0.19228096  0.47831080    -0.55400
C141        C  0.90212813  0.14719633  0.38608290     0.84700
O142        O  0.99411175  0.24763548  0.31811481    -0.57300
O143        O  0.06484617  0.26145141  0.40625635    -0.60600
In144      In  0.78030096  0.01902837  0.39427211     1.36900
C145        C  0.77644478  0.01729337  0.49706062     0.77100
O146        O  0.74263937  0.94062217  0.40216653    -0.61300
O147        O  0.81073816  0.97571888  0.36760897    -0.52300
C148        C  0.71893418  0.01235864  0.32371856     0.69800
O149        O  0.71104926  0.01135873  0.37168389    -0.47100
C150        C  0.85726229  0.10280702  0.38448812     0.74500
O151        O  0.74714716  0.02205127  0.47019871    -0.59000
O152        O  0.85422624  0.06568702  0.36741816    -0.49100
O153        O  0.80686814  0.01372983  0.47137885    -0.55400
C154        C  0.77619759  0.93753242  0.38345238     0.84700
O155        O  0.75861348  0.01856525  0.31181919    -0.57300
O156        O  0.81979560  0.09781789  0.40347844    -0.60600
C157        C  0.53470723  0.94431617  0.18928851     0.86000
C158        C  0.53106914  0.89589089  0.18573437    -0.54200
C159        C  0.57257616  0.89818570  0.17410982     0.08900
C160        C  0.61425666  0.94871610  0.16725130     0.19900
C161        C  0.57372955  0.97180909  0.22918068    -0.55000
C162        C  0.61501411  0.97386480  0.21770692     0.09000
C163        C  0.55608885  0.96742552  0.13683548    -0.54500
C164        C  0.59753844  0.96988846  0.12531223     0.09600
H165        H  0.49916602  0.86230553  0.19126904     0.14100
H166        H  0.64809344  0.95084586  0.15776712    -0.00100
H167        H  0.56861727  0.98689071  0.26423748     0.14400
H168        H  0.53915896  0.97971446  0.11019138     0.14200
C169        C  0.35989216  0.94753709  0.19009812     0.86000
C170        C  0.34931252  0.97540446  0.22982710    -0.54200
C171        C  0.31063237  0.97826994  0.21803366     0.08900
C172        C  0.28586722  0.95358143  0.16720219     0.19900
C173        C  0.31356121  0.89969400  0.18603743    -0.55000
C174        C  0.27501444  0.90276449  0.17385924     0.09000
C175        C  0.36309227  0.97105693  0.13773461    -0.54500
C176        C  0.32464202  0.97417460  0.12556637     0.09600
H177        H  0.36949828  0.98987496  0.26521520     0.14100
H178        H  0.25461084  0.95627496  0.15739310    -0.00100
H179        H  0.31034655  0.86572599  0.19139215     0.14400
H180        H  0.39252375  0.98236676  0.11113786     0.14200
C181        C  0.05458909  0.64225281  0.19385701     0.86000
C182        C  0.10267726  0.68827608  0.18861710    -0.54200
C183        C  0.09979188  0.72665424  0.17468668     0.08900
C184        C  0.04914469  0.71591680  0.16723937     0.19900
C185        C  0.02682536  0.65424453  0.23237439    -0.55000
C186        C  0.02430415  0.69276055  0.21860588     0.09000
C187        C  0.03130036  0.63785012  0.14098704    -0.54500
C188        C  0.02839261  0.67608686  0.12703164     0.09600
H189        H  0.13649884  0.69131464  0.19457819     0.14100
H190        H  0.04675735  0.74705271  0.15583053    -0.00100
H191        H  0.01225819  0.63517757  0.26846884     0.14400
H192        H  0.01962218  0.60762008  0.11563943     0.14200
C193        C  0.05668804  0.46726090  0.19765252     0.86000
C194        C  0.02646227  0.42649321  0.23488825    -0.54200
C195        C  0.02424014  0.38538133  0.22207291     0.08900
C196        C  0.05184620  0.38801689  0.17279288     0.19900
C197        C  0.10475572  0.46991758  0.19681667    -0.55000
C198        C  0.10220375  0.42845448  0.18400837     0.09000
C199        C  0.03650248  0.44879133  0.14355695    -0.54500
C200        C  0.03383003  0.40759159  0.13037993     0.09600
H201        H  0.01047454  0.43054523  0.26985232     0.14100
H202        H  0.04951100  0.35425929  0.16254057    -0.00100
H203        H  0.13826998  0.50125685  0.20452621     0.14400
H204        H  0.02574240  0.46731288  0.11725006     0.14200
C205        C  0.35961699  0.45983641  0.17993322     0.86000
C206        C  0.31588547  0.46470398  0.18129188    -0.54200
C207        C  0.27436151  0.42371162  0.17265654     0.08900
C208        C  0.28035112  0.38106388  0.16291768     0.19900
C209        C  0.34872219  0.42089379  0.22009732    -0.55000
C210        C  0.30730967  0.38004754  0.21109743     0.09000
C211        C  0.35729692  0.43715987  0.12747465    -0.54500
C212        C  0.31613182  0.39640456  0.11823529     0.09600
H213        H  0.31771834  0.49793232  0.18900619     0.14100
H214        H  0.24679604  0.34757725  0.15585679    -0.00100
H215        H  0.36961790  0.42509336  0.25424107     0.14400
H216        H  0.38593076  0.45240672  0.09942005     0.14200
C217        C  0.53880108  0.63992237  0.17922322     0.86000
C218        C  0.57678715  0.65266049  0.22113315    -0.54200
C219        C  0.61777622  0.69379903  0.21125236     0.08900
C220        C  0.61772357  0.71863297  0.16085078     0.19900
C221        C  0.53365391  0.68350921  0.17629593    -0.55000
C222        C  0.57474515  0.72473950  0.16650888     0.09000
C223        C  0.56274437  0.64031863  0.12821011    -0.54500
C224        C  0.60365605  0.68124494  0.11838827     0.09600
H225        H  0.57188852  0.63303687  0.25657901     0.14100
H226        H  0.65130366  0.75183967  0.15273056    -0.00100
H227        H  0.50028168  0.68178338  0.18240858     0.14400
H228        H  0.54793381  0.61092552  0.10127438     0.14200
C229        C  0.91249959  0.56757453  0.86836715     0.86000
C230        C  0.86592125  0.56639240  0.87927340    -0.54200
C231        C  0.87126021  0.60934693  0.89011083     0.08900
C232        C  0.92273281  0.64985813  0.88951476     0.19900
C233        C  0.93579261  0.60385500  0.82453939    -0.55000
C234        C  0.94099432  0.64663090  0.83563396     0.09000
C235        C  0.94252029  0.59153478  0.91646829    -0.54500
C236        C  0.94801164  0.63436070  0.92762384     0.09600
H237        H  0.83123874  0.53533473  0.87740489     0.14100
H238        H  0.92733687  0.68485273  0.89845347    -0.00100
H239        H  0.94618168  0.59601559  0.78761047     0.14400
H240        H  0.95743273  0.57541414  0.94055936     0.14200
C241        C  0.91106972  0.39041453  0.87262557     0.86000
C242        C  0.93348553  0.37576396  0.82995190    -0.54200
C243        C  0.93807710  0.33828824  0.84312125     0.08900
C244        C  0.92009187  0.31856491  0.89797315     0.19900
C245        C  0.86422789  0.34496452  0.88526057    -0.55000
C246        C  0.86877979  0.30739389  0.89839011     0.09000
C247        C  0.94133869  0.39839576  0.92079595    -0.54500
C248        C  0.94652198  0.36136239  0.93410047     0.09600
H249        H  0.94400751  0.39300986  0.79232749     0.14100
H250        H  0.92424481  0.28832134  0.90863782    -0.00100
H251        H  0.82988115  0.34116422  0.88237231     0.14400
H252        H  0.95718002  0.43085757  0.94305191     0.14200
C253        C  0.43411705  0.08694154  0.86647859     0.86000
C254        C  0.39736229  0.06416640  0.82280688    -0.54200
C255        C  0.35523911  0.06037741  0.83453817     0.08900
C256        C  0.35315019  0.07947044  0.88823182     0.19900
C257        C  0.43704876  0.13423982  0.87662062    -0.55000
C258        C  0.39479617  0.13046461  0.88816213     0.09000
C259        C  0.40948902  0.05699489  0.91453665    -0.54500
C260        C  0.36748430  0.05322913  0.92620004     0.09600
H261        H  0.40354798  0.05310355  0.78557245     0.14100
H262        H  0.31866630  0.07593481  0.89758913    -0.00100
H263        H  0.46974828  0.16782999  0.87388721     0.14400
H264        H  0.42470700  0.04096054  0.93828896     0.14200
C265        C  0.61115163  0.08674218  0.86751249     0.86000
C266        C  0.65583609  0.13415111  0.87894636    -0.54200
C267        C  0.69433232  0.13103799  0.89149555     0.08900
C268        C  0.68478667  0.08030580  0.89077800     0.19900
C269        C  0.62613755  0.06514966  0.82387080    -0.55000
C270        C  0.66456600  0.06183721  0.83634800     0.09000
C271        C  0.60450631  0.05612269  0.91507491    -0.54500
C272        C  0.64273874  0.05288926  0.92759660     0.09600
H273        H  0.65688716  0.16747850  0.87637927     0.14100
H274        H  0.71578730  0.07725730  0.90085951    -0.00100
H275        H  0.60928492  0.05429314  0.78631682     0.14400
H276        H  0.57236160  0.03935118  0.93808700     0.14200
C277        C  0.61358659  0.56800033  0.87032419     0.86000
C278        C  0.62549043  0.60315705  0.82570002    -0.54200
C279        C  0.66422365  0.64625268  0.83479860     0.08900
C280        C  0.68811140  0.65089565  0.88744611     0.19900
C281        C  0.65935093  0.56721486  0.87924343    -0.55000
C282        C  0.69821974  0.61035559  0.88828070     0.09000
C283        C  0.60984743  0.59316925  0.91847521    -0.54500
C284        C  0.64846233  0.63637121  0.92730281     0.09600
H285        H  0.60522072  0.59463559  0.79006545     0.14100
H286        H  0.71946012  0.68616477  0.89470820    -0.00100
H287        H  0.66211686  0.53604593  0.87836133     0.14400
H288        H  0.57921438  0.57797118  0.94381859     0.14200
C289        C  0.43491569  0.38816277  0.87290799     0.86000
C290        C  0.43665775  0.34313166  0.88355718    -0.54200
C291        C  0.39384934  0.30385052  0.89299021     0.08900
C292        C  0.35266074  0.31303931  0.89109104     0.19900
C293        C  0.39983759  0.37481709  0.82802777    -0.55000
C294        C  0.35705066  0.33577490  0.83771645     0.09000
C295        C  0.40913237  0.39222567  0.92038976    -0.54500
C296        C  0.36617118  0.35327864  0.92971365     0.09600
H297        H  0.46824171  0.34111632  0.88286163     0.14100
H298        H  0.31756742  0.28150807  0.89875933    -0.00100
H299        H  0.40811333  0.39449112  0.79192839     0.14400
H300        H  0.42360572  0.42340340  0.94470493     0.14200
C301        C  0.52519082  0.51941550  0.85881508    -0.13800
C302        C  0.56841494  0.52078153  0.86151350     0.08300
C303        C  0.56750836  0.47778639  0.85897134    -0.13800
C304        C  0.52499841  0.43500993  0.85970229    -0.13800
C305        C  0.48175756  0.43358570  0.86303228     0.08300
C306        C  0.48253402  0.47647688  0.85951480    -0.13800
H307        H  0.52444501  0.55178631  0.85890277     0.12300
H308        H  0.59906509  0.47597112  0.85726308     0.12300
H309        H  0.52722456  0.40367184  0.85829740     0.12300
H310        H  0.44993802  0.47682937  0.86001709     0.12300
C311        C  0.35157587  0.21660319  0.87720425    -0.13800
C312        C  0.38888294  0.25689941  0.90032527     0.08300
C313        C  0.42462979  0.25320575  0.92539789    -0.13800
C314        C  0.42534719  0.21142403  0.92343660    -0.13800
C315        C  0.39002498  0.17218590  0.89691840     0.08300
C316        C  0.35210662  0.17447196  0.87561145    -0.13800
H317        H  0.32363502  0.21840894  0.85750237     0.12300
H318        H  0.45312198  0.28325113  0.94495128     0.12300
H319        H  0.45430288  0.21020139  0.94143749     0.12300
H320        H  0.32439430  0.14468329  0.85493352     0.12300
C321        C  0.51533067  0.11389705  0.89939216    -0.13800
C322        C  0.48235784  0.09203696  0.85936318     0.08300
C323        C  0.49411872  0.07219972  0.81773672    -0.13800
C324        C  0.53658760  0.07206571  0.81801634    -0.13800
C325        C  0.56811768  0.09168553  0.85995772     0.08300
C326        C  0.55717279  0.11358085  0.89976312    -0.13800
H327        H  0.50751938  0.12941148  0.93209762     0.12300
H328        H  0.47022157  0.05484529  0.78599593     0.12300
H329        H  0.54307542  0.05466955  0.78650933     0.12300
H330        H  0.58046356  0.12889062  0.93277746     0.12300
C331        C  0.78624723  0.25492406  0.92983308    -0.13800
C332        C  0.82689951  0.25980043  0.90627940     0.08300
C333        C  0.82505259  0.21999195  0.88444553    -0.13800
C334        C  0.78234707  0.17703991  0.88231818    -0.13800
C335        C  0.74093782  0.17338393  0.90191035     0.08300
C336        C  0.74368921  0.21219640  0.92755504    -0.13800
H337        H  0.78683548  0.28466850  0.94811192     0.12300
H338        H  0.85583218  0.22286145  0.86582286     0.12300
H339        H  0.78113252  0.14762236  0.86230667     0.12300
H340        H  0.71261859  0.21005804  0.94429009     0.12300
C341        C  0.82785834  0.65199162  0.87280701    -0.13800
C342        C  0.83020061  0.61540707  0.89777457     0.08300
C343        C  0.79092561  0.58142129  0.92561831    -0.13800
C344        C  0.74896940  0.58177589  0.92522863    -0.13800
C345        C  0.74524010  0.61599008  0.89676374     0.08300
C346        C  0.78553644  0.65226975  0.87227898    -0.13800
H347        H  0.85768235  0.67853879  0.85096090     0.12300
H348        H  0.79216735  0.55346098  0.94616315     0.12300
H349        H  0.71877580  0.55411542  0.94563444     0.12300
H350        H  0.78355800  0.67901966  0.85005141     0.12300
C351        C  0.86698182  0.47729525  0.85706186    -0.13800
C352        C  0.90969479  0.52071983  0.85759486     0.08300
C353        C  0.95177936  0.52009677  0.85236476    -0.13800
C354        C  0.95141885  0.47759548  0.85320652    -0.13800
C355        C  0.90896289  0.43443596  0.85945807     0.08300
C356        C  0.86662286  0.43490979  0.85796126    -0.13800
H357        H  0.83327508  0.47491003  0.85777526     0.12300
H358        H  0.98532607  0.55275952  0.85105735     0.12300
H359        H  0.98468373  0.47863514  0.85254845     0.12300
H360        H  0.83264316  0.40317789  0.85924485     0.12300
C361        C  0.60715685  0.69161421  0.02342458    -0.13800
C362        C  0.62832016  0.68772779  0.06878832     0.08300
C363        C  0.66398714  0.67674735  0.06514390    -0.13800
C364        C  0.67511431  0.66529678  0.01695315    -0.13800
C365        C  0.65026813  0.66442035  0.97245965     0.08300
C366        C  0.61797305  0.67986817  0.97550850    -0.13800
H367        H  0.57890654  0.69912621  0.02578302     0.12300
H368        H  0.67979303  0.67251688  0.09999805     0.12300
H369        H  0.69947389  0.65255848  0.01524151     0.12300
H370        H  0.59805959  0.67868508  0.94157331     0.12300
C371        C  0.30919229  0.39537483  0.02303267    -0.13800
C372        C  0.30929983  0.37196746  0.06841991     0.08300
C373        C  0.31810414  0.33477450  0.06502954    -0.13800
C374        C  0.33168369  0.32458415  0.01755006    -0.13800
C375        C  0.33685016  0.35187324  0.97356343     0.08300
C376        C  0.32313425  0.38554917  0.97590880    -0.13800
H377        H  0.30330702  0.42470331  0.02514826     0.12300
H378        H  0.31941724  0.31713589  0.09990997     0.12300
H379        H  0.34277458  0.29890970  0.01637611     0.12300
H380        H  0.32726951  0.40710672  0.94233799     0.12300
C381        C  0.45663352  0.58470203  0.14782743    -0.13800
C382        C  0.49159078  0.59436944  0.18494331     0.08300
C383        C  0.48215319  0.56009415  0.22310704    -0.13800
C384        C  0.43950740  0.51703494  0.22316835    -0.13800
C385        C  0.40510984  0.50713760  0.18510830     0.08300
C386        C  0.41417033  0.54205811  0.14805342    -0.13800
H387        H  0.46271320  0.60999508  0.11756312     0.12300
H388        H  0.50783623  0.56521335  0.25215650     0.12300
H389        H  0.43470274  0.49159997  0.25242898     0.12300
H390        H  0.38862946  0.53570096  0.11810673     0.12300
C391        C  0.97592522  0.34447469  0.07086972    -0.13800
C392        C  0.01809959  0.38747887  0.07803429     0.08300
C393        C  0.04067131  0.41626469  0.03496713    -0.13800
C394        C  0.01922324  0.40479679  0.98645285    -0.13800
C395        C  0.97470501  0.36438200  0.98009466     0.08300
C396        C  0.95422701  0.33289686  0.02185934    -0.13800
H397        H  0.95787131  0.32204689  0.10383729     0.12300
H398        H  0.07324111  0.44955244  0.03981195     0.12300
H399        H  0.03566711  0.42945801  0.95467788     0.12300
H400        H  0.91970287  0.30173718  0.01780031     0.12300
C401        C  0.15024961  0.39694388  0.14399199    -0.13800
C402        C  0.14443122  0.42358548  0.18266531     0.08300
C403        C  0.18003816  0.44704224  0.21971262    -0.13800
C404        C  0.22143842  0.44581698  0.21694836    -0.13800
C405        C  0.22835691  0.42105580  0.17711877     0.08300
C406        C  0.19200638  0.39560520  0.14128641    -0.13800
H407        H  0.12337008  0.37860139  0.11486419     0.12300
H408        H  0.17595667  0.46668471  0.25088136     0.12300
H409        H  0.24840317  0.46459859  0.24595339     0.12300
H410        H  0.19657775  0.37624482  0.11025968     0.12300
C411        C  0.03911055  0.67897881  0.03189773    -0.13800
C412        C  0.01306835  0.67978976  0.07443768     0.08300
C413        C  0.96891079  0.67509018  0.06620008    -0.13800
C414        C  0.94922169  0.66531534  0.01627218    -0.13800
C415        C  0.97360632  0.66001113  0.97467325     0.08300
C416        C  0.01950057  0.66910560  0.98236715    -0.13800
H417        H  0.07318912  0.68241054  0.03771900     0.12300
H418        H  0.94819793  0.67507160  0.09880875     0.12300
H419        H  0.91345190  0.65762070  0.01109196     0.12300
H420        H  0.03864523  0.66484106  0.95076423     0.12300
C421        C  0.01296994  0.55378648  0.20469854    -0.13800
C422        C  0.05515229  0.59753410  0.20777772     0.08300
C423        C  0.09671931  0.59751090  0.21978415    -0.13800
C424        C  0.09728363  0.55553938  0.22075737    -0.13800
C425        C  0.05625348  0.51228191  0.20988601     0.08300
C426        C  0.01352880  0.51177441  0.20561793    -0.13800
H427        H  0.97990105  0.55222729  0.19775670     0.12300
H428        H  0.12954707  0.62950813  0.22718017     0.12300
H429        H  0.13056386  0.55814174  0.22834547     0.12300
H430        H  0.98088503  0.47894734  0.19923813     0.12300
C431        C  0.33230299  0.98194275  0.98141590    -0.13800
C432        C  0.34106315  0.02762310  0.97302748     0.08300
C433        C  0.33390660  0.05158852  0.01370615    -0.13800
C434        C  0.32326706  0.03194545  0.06376642    -0.13800
C435        C  0.31948640  0.98827308  0.07286576     0.08300
C436        C  0.32141590  0.96234638  0.03091856    -0.13800
H437        H  0.33777577  0.96304176  0.95047228     0.12300
H438        H  0.34097284  0.08708052  0.00793929     0.12300
H439        H  0.32224151  0.05251193  0.09586688     0.12300
H440        H  0.31865086  0.92861130  0.03742806     0.12300
C441        C  0.22445541  0.82037185  0.14261859    -0.13800
C442        C  0.22800905  0.86016195  0.16666461     0.08300
C443        C  0.18732727  0.85734880  0.18741975    -0.13800
C444        C  0.14456467  0.81425633  0.18766850    -0.13800
C445        C  0.14223237  0.77371032  0.16728178     0.08300
C446        C  0.18209651  0.77759585  0.14305880    -0.13800
H447        H  0.25496457  0.82197272  0.12483268     0.12300
H448        H  0.18918852  0.88761189  0.20601969     0.12300
H449        H  0.11414419  0.81204820  0.20639408     0.12300
H450        H  0.18081949  0.74712778  0.12571042     0.12300
C451        C  0.60679572  0.98038883  0.98101368    -0.13800
C452        C  0.64241768  0.02756778  0.97487739     0.08300
C453        C  0.66953362  0.05281481  0.01797565    -0.13800
C454        C  0.65799773  0.03230946  0.06756157    -0.13800
C455        C  0.61955683  0.98644989  0.07396948     0.08300
C456        C  0.59550633  0.95994862  0.03021114    -0.13800
H457        H  0.58518258  0.96064941  0.94823252     0.12300
H458        H  0.69649665  0.08956238  0.01406114     0.12300
H459        H  0.67632753  0.05344209  0.10110097     0.12300
H460        H  0.56543686  0.92467838  0.03471738     0.12300
C461        C  0.61445725  0.85343925  0.18754227    -0.13800
C462        C  0.57585971  0.85535314  0.16783934     0.08300
C463        C  0.53901798  0.81523351  0.14398505    -0.13800
C464        C  0.53956893  0.77339059  0.14200786    -0.13800
C465        C  0.57700069  0.77067280  0.16384317     0.08300
C466        C  0.61501781  0.81133614  0.18558661    -0.13800
H467        H  0.64318875  0.88381866  0.20636446     0.12300
H468        H  0.50939676  0.81605256  0.12722031     0.12300
H469        H  0.51038171  0.74292491  0.12385259     0.12300
H470        H  0.64413473  0.81009331  0.20303168     0.12300
C471        C  0.49037504  0.98768866  0.19776118    -0.13800
C472        C  0.48958710  0.94474389  0.20066779     0.08300
C473        C  0.44623029  0.90362547  0.21093745    -0.13800
C474        C  0.40451491  0.90446736  0.21147741    -0.13800
C475        C  0.40465639  0.94643139  0.20153358     0.08300
C476        C  0.44849572  0.98852858  0.19820063    -0.13800
H477        H  0.52329533  0.02039898  0.19195217     0.12300
H478        H  0.44336365  0.87007910  0.21769738     0.12300
H479        H  0.37258437  0.87151166  0.21874149     0.12300
H480        H  0.45018971  0.02181262  0.19257190     0.12300
C481        C  0.65380323  0.99290009  0.25345145    -0.13800
C482        C  0.68436509  0.00442321  0.28531634    -0.15300
C483        C  0.99576804  0.31611337  0.28972033    -0.13800
C484        C  0.00568702  0.34620026  0.25749422    -0.15300
C485        C  0.26818780  0.31369854  0.28261409    -0.13800
C486        C  0.28711772  0.34257577  0.24874892    -0.15300
C487        C  0.68536391  0.73486769  0.28096225    -0.13800
C488        C  0.65546929  0.71496852  0.24841831    -0.15300
C489        C  0.00618045  0.71384195  0.25335561    -0.13800
C490        C  0.99565474  0.73389513  0.28476770    -0.15300
C491        C  0.29102005  0.99678695  0.25422628    -0.13800
C492        C  0.27188579  0.00749625  0.28661612    -0.15300
C493        C  0.68555781  0.04456514  0.80017211    -0.13800
C494        C  0.70432219  0.03269372  0.76845573    -0.15300
C495        C  0.69946714  0.71396156  0.76458291    -0.13800
C496        C  0.68206625  0.68357899  0.79709509    -0.15300
C497        C  0.96842020  0.71425371  0.76574117    -0.13800
C498        C  0.95795675  0.68400719  0.79793621    -0.15300
C499        C  0.28638986  0.03237551  0.76646530    -0.13800
C500        C  0.31719977  0.04322892  0.79787651    -0.15300
C501        C  0.28860717  0.29953491  0.76857718    -0.13800
C502        C  0.31949994  0.31713972  0.80038859    -0.15300
C503        C  0.96680296  0.29847768  0.77470966    -0.13800
C504        C  0.95521561  0.31721689  0.80681657    -0.15300
loop_ 
_geom_bond_atom_site_label_1 
_geom_bond_atom_site_label_2 
_geom_bond_distance 
_geom_bond_site_symmetry_2 
_ccdc_geom_bond_type 
In1           O3   2.261   1_655  S
In1           O4   2.233   1_655  S
In1          O12   2.247       .  S
In1           O6   2.256       .  S
In1           O8   2.273       .  S
In1           O9   2.237       .  S
In1          O10   2.221       .  S
In1          O13   2.238       .  S
C2            O8   1.264       .  A
C2           O10   1.257       .  A
C2          C132   1.464       .  S
O3           C11   1.261       .  A
O4           C11   1.258       .  A
C5           O12   1.258       .  A
C5            O6   1.260       .  A
C5          C503   1.438       .  S
C7            O9   1.261       .  A
C7           O13   1.261       .  A
C7           C76   1.458       .  S
C11          C20   1.464       .  S
In14         O16   2.242       .  S
In14         O17   2.240       .  S
In14         O25   2.237       .  S
In14         O19   2.248       .  S
In14         O21   2.271       .  S
In14         O22   2.233       .  S
In14         O23   2.220       .  S
In14         O26   2.262       .  S
C15          O21   1.263       .  A
C15          O23   1.258       .  A
C15         C119   1.464       .  S
O16          C24   1.260       .  A
O17          C24   1.260       .  A
C18          O25   1.257       .  A
C18          O19   1.260       .  A
C18         C501   1.431       .  S
C20          O22   1.258       .  A
C20          O26   1.261       .  A
C24          C33   1.460       .  S
In27         O29   2.258   1_545  S
In27         O30   2.239   1_545  S
In27         O38   2.241       .  S
In27         O32   2.249       .  S
In27         O34   2.268       .  S
In27         O35   2.241       .  S
In27         O36   2.221       .  S
In27         O39   2.245       .  S
C28          O34   1.263       .  A
C28          O36   1.258       .  A
C28          C80   1.463       .  S
O29          C37   1.261       .  A
O30          C37   1.259       .  A
C31          O38   1.257       .  A
C31          O32   1.259       .  A
C31         C499   1.432       .  S
C33          O35   1.260       .  A
C33          O39   1.260       .  A
C37          C46   1.465       .  S
In40         O42   2.245       .  S
In40         O43   2.242       .  S
In40         O51   2.241       .  S
In40         O45   2.253       .  S
In40         O47   2.270       .  S
In40         O48   2.238   1_655  S
In40         O49   2.223       .  S
In40         O52   2.258   1_655  S
C41          O47   1.264       .  A
C41          O49   1.259       .  A
C41          C93   1.465       .  S
O42          C50   1.260       .  A
O43          C50   1.260       .  A
C44          O51   1.257       .  A
C44          O45   1.260       .  A
C44         C497   1.434       .  S
C46          O48   1.259       .  A
C46          O52   1.261       .  A
C50          C59   1.460       .  S
In53         O55   2.259       .  S
In53         O56   2.225       .  S
In53         O64   2.236       .  S
In53         O58   2.247       .  S
In53         O60   2.272       .  S
In53         O61   2.240       .  S
In53         O62   2.218       .  S
In53         O65   2.244       .  S
C54          O60   1.264       .  A
C54          O62   1.258       .  A
C54         C106   1.464       .  S
O55          C63   1.262       .  A
O56          C63   1.259       .  A
C57          O64   1.257       .  A
C57          O58   1.260       .  A
C57         C495   1.431       .  S
C59          O61   1.260       .  A
C59          O65   1.260       .  A
C63          C72   1.462       .  S
In66         O68   2.240       .  S
In66         O69   2.238       .  S
In66         O77   2.242       .  S
In66         O71   2.249       .  S
In66         O73   2.274       .  S
In66         O74   2.225   1_545  S
In66         O75   2.221       .  S
In66         O78   2.261   1_545  S
C67          O73   1.263       .  A
C67          O75   1.257       .  A
C67         C145   1.463       .  S
O68          C76   1.260       .  A
O69          C76   1.259       .  A
C70          O77   1.258       .  A
C70          O71   1.261       .  A
C70         C494   1.436       .  S
C72          O74   1.258       .  A
C72          O78   1.262       .  A
In79         O81   2.256       .  S
In79         O82   2.231       .  S
In79         O90   2.238       .  S
In79         O84   2.252       .  S
In79         O86   2.270       .  S
In79         O87   2.234   1_545  S
In79         O88   2.220       .  S
In79         O91   2.247   1_545  S
C80          O86   1.264       .  A
C80          O88   1.257       .  A
O81          C89   1.261       .  A
O82          C89   1.258       .  A
C83          O90   1.257       .  A
C83          O84   1.260       .  A
C83         C492   1.433       .  S
C85          O87   1.259       .  A
C85          O91   1.261       .  A
C85         C102   1.459       .  S
C89         C124   1.461       .  S
In92         O94   2.246   1_655  S
In92         O95   2.236   1_655  S
In92        O103   2.242       .  S
In92         O97   2.251       .  S
In92         O99   2.270       .  S
In92        O100   2.238       .  S
In92        O101   2.225       .  S
In92        O104   2.254       .  S
C93          O99   1.263       .  A
C93         O101   1.258       .  A
O94         C102   1.260       .  A
O95         C102   1.260       .  A
C96         O103   1.257       .  A
C96          O97   1.260       .  A
C96         C490   1.434       .  S
C98         O100   1.259       .  A
C98         O104   1.260       .  A
C98         C115   1.462       .  S
In105       O107   2.252       .  S
In105       O108   2.236       .  S
In105       O116   2.240       .  S
In105       O110   2.249       .  S
In105       O112   2.271       .  S
In105       O113   2.239       .  S
In105       O114   2.221       .  S
In105       O117   2.240       .  S
C106        O112   1.264       .  A
C106        O114   1.258       .  A
O107        C115   1.261       .  A
O108        C115   1.259       .  A
C109        O116   1.257       .  A
C109        O110   1.260       .  A
C109        C487   1.433       .  S
C111        O113   1.260       .  A
C111        O117   1.260       .  A
C111        C154   1.458       .  S
In118       O120   2.247       .  S
In118       O121   2.235       .  S
In118       O129   2.235       .  S
In118       O123   2.249       .  S
In118       O125   2.271       .  S
In118       O126   2.230       .  S
In118       O127   2.218       .  S
In118       O130   2.252       .  S
C119        O125   1.265       .  A
C119        O127   1.258       .  A
O120        C128   1.260       .  A
O121        C128   1.260       .  A
C122        O129   1.257       .  A
C122        O123   1.262       .  A
C122        C485   1.433       .  S
C124        O126   1.260       .  A
C124        O130   1.262       .  A
C128        C137   1.460       .  S
In131       O133   2.251       .  S
In131       O134   2.229       .  S
In131       O142   2.237       .  S
In131       O136   2.252       .  S
In131       O138   2.272       .  S
In131       O139   2.232   1_655  S
In131       O140   2.221       .  S
In131       O143   2.248   1_655  S
C132        O138   1.263       .  A
C132        O140   1.258       .  A
O133        C141   1.261       .  A
O134        C141   1.259       .  A
C135        O142   1.257       .  A
C135        O136   1.261       .  A
C135        C483   1.433       .  S
C137        O139   1.259       .  A
C137        O143   1.261       .  A
C141        C150   1.459       .  S
In144       O146   2.238   1_545  S
In144       O147   2.237   1_545  S
In144       O155   2.240       .  S
In144       O149   2.248       .  S
In144       O151   2.268       .  S
In144       O152   2.229       .  S
In144       O153   2.215       .  S
In144       O156   2.251       .  S
C145        O151   1.264       .  A
C145        O153   1.258       .  A
O146        C154   1.260       .  A
O147        C154   1.260       .  A
C148        O155   1.257       .  A
C148        O149   1.260       .  A
C148        C482   1.432       .  S
C150        O152   1.259       .  A
C150        O156   1.261       .  A
C157        C158   1.545       .  S
C157        C163   1.534       .  S
C157        C161   1.534       .  S
C157        C472   1.527       .  S
C158        H165   1.080       .  S
C158        C159   1.368       .  D
C159        C160   1.538       .  S
C159        C462   1.483       .  S
C160        C164   1.535       .  S
C160        C162   1.537       .  S
C160        H166   1.111       .  S
C161        H167   1.086       .  S
C161        C162   1.363       .  D
C162        C481   1.438       .  S
C163        H168   1.087       .  S
C163        C164   1.363       .  D
C164        C455   1.472       .  S
C169        C170   1.533       .  S
C169        C175   1.533       .  S
C169        C173   1.543       .  S
C169        C475   1.528       .  S
C170        H177   1.087       .  S
C170        C171   1.364       .  D
C171        C172   1.540       .  S
C171        C491   1.439       .  S
C172        C176   1.536       .  S
C172        C174   1.537       .  S
C172        H178   1.111       .  S
C173        H179   1.081       .  S
C173        C174   1.366       .  D
C174        C442   1.482       .  S
C175        H180   1.087       .  S
C175        C176   1.363       .  D
C176        C435   1.473       .  S
C181        C182   1.545       .  S
C181        C187   1.535       .  S
C181        C185   1.535       .  S
C181        C422   1.530       .  S
C182        H189   1.081       .  S
C182        C183   1.367       .  D
C183        C184   1.536       .  S
C183        C445   1.480       .  S
C184        C188   1.536       .  S
C184        C186   1.538       .  S
C184        H190   1.111       .  S
C185        H191   1.087       .  S
C185        C186   1.364       .  D
C186        C489   1.440       .  S
C187        H192   1.087       .  S
C187        C188   1.363       .  D
C188        C412   1.474       .  S
C193        C194   1.534       .  S
C193        C199   1.532       .  S
C193        C197   1.546       .  S
C193        C425   1.529       .  S
C194        H201   1.086       .  S
C194        C195   1.364       .  D
C195        C196   1.539       .  S
C195        C484   1.439       .  S
C196        C200   1.537       .  S
C196        C198   1.539       .  S
C196        H202   1.111       .  S
C197        H203   1.080       .  S
C197        C198   1.370       .  D
C198        C402   1.485       .  S
C199        H204   1.088       .  S
C199        C200   1.362       .  D
C200        C392   1.477       .  S
C205        C206   1.534       .  S
C205        C211   1.529       .  S
C205        C209   1.543       .  S
C205        C385   1.523       .  S
C206        H213   1.087       .  S
C206        C207   1.367       .  D
C207        C208   1.541       .  S
C207        C405   1.482       .  S
C208        C212   1.537       .  S
C208        C210   1.539       .  S
C208        H214   1.111       .  S
C209        H215   1.083       .  S
C209        C210   1.365       .  D
C210        C486   1.439       .  S
C211        H216   1.087       .  S
C211        C212   1.360       .  D
C212        C372   1.472       .  S
C217        C218   1.544       .  S
C217        C223   1.530       .  S
C217        C221   1.536       .  S
C217        C382   1.523       .  S
C218        H225   1.083       .  S
C218        C219   1.365       .  D
C219        C220   1.536       .  S
C219        C488   1.439       .  S
C220        C224   1.535       .  S
C220        C222   1.540       .  S
C220        H226   1.111       .  S
C221        H227   1.086       .  S
C221        C222   1.368       .  D
C222        C465   1.483       .  S
C223        H228   1.087       .  S
C223        C224   1.360       .  D
C224        C362   1.470       .  S
C229        C230   1.545       .  S
C229        C235   1.533       .  S
C229        C233   1.535       .  S
C229        C352   1.529       .  S
C230        H237   1.080       .  S
C230        C231   1.367       .  D
C231        C232   1.536       .  S
C231        C342   1.483       .  S
C232        C236   1.537       .  S
C232        C234   1.539       .  S
C232        H238   1.111       .  S
C233        H239   1.087       .  S
C233        C234   1.365       .  D
C234        C498   1.439       .  S
C235        H240   1.086       .  S
C235        C236   1.363       .  D
C236        C415   1.475       .  S
C241        C242   1.536       .  S
C241        C247   1.531       .  S
C241        C245   1.543       .  S
C241        C355   1.530       .  S
C242        H249   1.087       .  S
C242        C243   1.365       .  D
C243        C244   1.541       .  S
C243        C504   1.444       .  S
C244        C248   1.540       .  S
C244        C246   1.540       .  S
C244        H250   1.111       .  S
C245        H251   1.079       .  S
C245        C246   1.367       .  D
C246        C332   1.485       .  S
C247        H252   1.087       .  S
C247        C248   1.363       .  D
C248        C395   1.480       .  S
C253        C254   1.542       .  S
C253        C259   1.532       .  S
C253        C257   1.539       .  S
C253        C322   1.526       .  S
C254        H261   1.083       .  S
C254        C255   1.366       .  D
C255        C256   1.537       .  S
C255        C500   1.438       .  S
C256        C260   1.534       .  S
C256        C258   1.537       .  S
C256        H262   1.111       .  S
C257        H263   1.086       .  S
C257        C258   1.369       .  D
C258        C315   1.483       .  S
C259        H264   1.087       .  S
C259        C260   1.362       .  D
C260        C432   1.475       .  S
C265        C266   1.536       .  S
C265        C271   1.531       .  S
C265        C269   1.543       .  S
C265        C325   1.525       .  S
C266        H273   1.086       .  S
C266        C267   1.367       .  D
C267        C268   1.540       .  S
C267        C335   1.484       .  S
C268        C272   1.536       .  S
C268        C270   1.540       .  S
C268        H274   1.111       .  S
C269        H275   1.083       .  S
C269        C270   1.368       .  D
C270        C493   1.442       .  S
C271        H276   1.088       .  S
C271        C272   1.361       .  D
C272        C452   1.474       .  S
C277        C278   1.535       .  S
C277        C283   1.534       .  S
C277        C281   1.543       .  S
C277        C302   1.528       .  S
C278        H285   1.086       .  S
C278        C279   1.364       .  D
C279        C280   1.538       .  S
C279        C496   1.437       .  S
C280        C284   1.535       .  S
C280        C282   1.538       .  S
C280        H286   1.111       .  S
C281        H287   1.080       .  S
C281        C282   1.366       .  D
C282        C345   1.484       .  S
C283        H288   1.087       .  S
C283        C284   1.363       .  D
C284        C365   1.471       .  S
C289        C290   1.543       .  S
C289        C295   1.535       .  S
C289        C293   1.535       .  S
C289        C305   1.529       .  S
C290        H297   1.080       .  S
C290        C291   1.366       .  D
C291        C292   1.540       .  S
C291        C312   1.487       .  S
C292        C296   1.535       .  S
C292        C294   1.537       .  S
C292        H298   1.111       .  S
C293        H299   1.086       .  S
C293        C294   1.364       .  D
C294        C502   1.438       .  S
C295        H300   1.087       .  S
C295        C296   1.364       .  D
C296        C375   1.473       .  S
C301        C302   1.408       .  A
C301        C306   1.399       .  A
C301        H307   1.083       .  S
C302        C303   1.408       .  A
C303        C304   1.394       .  A
C303        H308   1.076       .  S
C304        C305   1.408       .  A
C304        H309   1.076       .  S
C305        C306   1.408       .  A
C306        H310   1.083       .  S
C311        C312   1.405       .  A
C311        C316   1.402       .  A
C311        H317   1.082       .  S
C312        C313   1.406       .  A
C313        C314   1.394       .  A
C313        H318   1.083       .  S
C314        C315   1.403       .  A
C314        H319   1.083       .  S
C315        C316   1.406       .  A
C316        H320   1.083       .  S
C321        C322   1.404       .  A
C321        C326   1.388       .  A
C321        H327   1.084       .  S
C322        C323   1.412       .  A
C323        C324   1.406       .  A
C323        H328   1.077       .  S
C324        C325   1.410       .  A
C324        H329   1.078       .  S
C325        C326   1.405       .  A
C326        H330   1.085       .  S
C331        C332   1.406       .  A
C331        C336   1.395       .  A
C331        H337   1.082       .  S
C332        C333   1.404       .  A
C333        C334   1.401       .  A
C333        H338   1.084       .  S
C334        C335   1.404       .  A
C334        H339   1.084       .  S
C335        C336   1.405       .  A
C336        H340   1.082       .  S
C341        C342   1.406       .  A
C341        C346   1.404       .  A
C341        H347   1.083       .  S
C342        C343   1.403       .  A
C343        C344   1.393       .  A
C343        H348   1.083       .  S
C344        C345   1.405       .  A
C344        H349   1.083       .  S
C345        C346   1.405       .  A
C346        H350   1.083       .  S
C351        C352   1.408       .  A
C351        C356   1.395       .  A
C351        H357   1.076       .  S
C352        C353   1.408       .  A
C353        C354   1.399       .  A
C353        H358   1.083       .  S
C354        C355   1.408       .  A
C354        H359   1.082       .  S
C355        C356   1.408       .  A
C356        H360   1.076       .  S
C361        C362   1.402       .  A
C361        C366   1.394   1_554  A
C361        H367   1.084       .  S
C362        C363   1.403       .  A
C363        C364   1.401       .  A
C363        H368   1.084       .  S
C364        C365   1.402   1_554  A
C364        H369   1.083       .  S
C365        C366   1.401       .  A
C366        H370   1.084       .  S
C371        C372   1.402       .  A
C371        C376   1.394   1_554  A
C371        H377   1.083       .  S
C372        C373   1.403       .  A
C373        C374   1.402       .  A
C373        H378   1.084       .  S
C374        C375   1.402   1_554  A
C374        H379   1.083       .  S
C375        C376   1.401       .  A
C376        H380   1.083       .  S
C381        C382   1.406       .  A
C381        C386   1.391       .  A
C381        H387   1.083       .  S
C382        C383   1.408       .  A
C383        C384   1.401       .  A
C383        H388   1.079       .  S
C384        C385   1.408       .  A
C384        H389   1.078       .  S
C385        C386   1.406       .  A
C386        H390   1.083       .  S
C391        C392   1.405   1_655  A
C391        C396   1.406       .  A
C391        H397   1.083       .  S
C392        C393   1.401       .  A
C393        C394   1.392   1_554  A
C393        H398   1.084       .  S
C394        C395   1.403   1_455  A
C394        H399   1.084       .  S
C395        C396   1.405   1_556  A
C396        H400   1.083       .  S
C401        C402   1.407       .  A
C401        C406   1.405       .  A
C401        H407   1.082       .  S
C402        C403   1.403       .  A
C403        C404   1.391       .  A
C403        H408   1.084       .  S
C404        C405   1.403       .  A
C404        H409   1.084       .  S
C405        C406   1.405       .  A
C406        H410   1.082       .  S
C411        C412   1.402       .  A
C411        C416   1.393   1_554  A
C411        H417   1.083       .  S
C412        C413   1.403   1_455  A
C413        C414   1.404       .  A
C413        H418   1.083       .  S
C414        C415   1.404   1_554  A
C414        H419   1.083       .  S
C415        C416   1.402   1_655  A
C416        H420   1.083       .  S
C421        C422   1.407       .  A
C421        C426   1.398       .  A
C421        H427   1.083   1_455  S
C422        C423   1.409       .  A
C423        C424   1.397       .  A
C423        H428   1.077       .  S
C424        C425   1.408       .  A
C424        H429   1.077       .  S
C425        C426   1.408       .  A
C426        H430   1.083   1_455  S
C431        C432   1.401   1_565  A
C431        C436   1.391   1_556  A
C431        H437   1.084       .  S
C432        C433   1.405   1_556  A
C433        C434   1.404       .  A
C433        H438   1.083       .  S
C434        C435   1.403   1_545  A
C434        H439   1.083       .  S
C435        C436   1.401       .  A
C436        H440   1.084       .  S
C441        C442   1.404       .  A
C441        C446   1.391       .  A
C441        H447   1.084       .  S
C442        C443   1.405       .  A
C443        C444   1.403       .  A
C443        H448   1.083       .  S
C444        C445   1.405       .  A
C444        H449   1.083       .  S
C445        C446   1.403       .  A
C446        H450   1.083       .  S
C451        C452   1.402   1_565  A
C451        C456   1.393   1_556  A
C451        H457   1.084       .  S
C452        C453   1.404   1_556  A
C453        C454   1.403       .  A
C453        H458   1.083       .  S
C454        C455   1.403   1_545  A
C454        H459   1.082       .  S
C455        C456   1.401       .  A
C456        H460   1.084       .  S
C461        C462   1.405       .  A
C461        C466   1.402       .  A
C461        H467   1.083       .  S
C462        C463   1.404       .  A
C463        C464   1.393       .  A
C463        H468   1.083       .  S
C464        C465   1.404       .  A
C464        H469   1.083       .  S
C465        C466   1.406       .  A
C466        H470   1.082       .  S
C471        C472   1.408       .  A
C471        C476   1.399       .  A
C471        H477   1.083   1_565  S
C472        C473   1.406       .  A
C473        C474   1.393       .  A
C473        H478   1.077       .  S
C474        C475   1.408       .  A
C474        H479   1.077       .  S
C475        C476   1.408       .  A
C476        H480   1.082   1_565  S
C481        C482   1.204   1_565  T
C483        C484   1.204   1_655  T
C485        C486   1.204       .  T
C487        C488   1.204       .  T
C489        C490   1.205   1_455  T
C491        C492   1.204   1_565  T
C493        C494   1.206       .  T
C495        C496   1.203       .  T
C497        C498   1.205       .  T
C499        C500   1.204       .  T
C501        C502   1.203       .  T
C503        C504   1.207       .  T
