geometry optimzed in LAMMPS
_audit_creation_date              2020-11-30 
_audit_creation_method            'lammps2cif' 
_symmetry_space_group_name_H-M    'P1' 
_symmetry_Int_Tables_number       1 
_symmetry_cell_setting            triclinic 
loop_ 
_symmetry_equiv_pos_as_xyz 
  x,y,z 
_cell_length_a                    29.22672581 
_cell_length_b                    29.30420714824893 
_cell_length_c                    29.158369678448068 
_cell_angle_alpha                 89.95166823688821 
_cell_angle_beta                  90.19391930720037 
_cell_angle_gamma                 90.0765116957028 
loop_ 
_atom_site_label 
_atom_site_type_symbol 
_atom_site_fract_x 
_atom_site_fract_y 
_atom_site_fract_z 
_atom_site_charge 
N1          N  0.01286437  0.49617973  0.42627124    -0.36600
N2          N  0.00548616  0.56606740  0.49727244    -0.57200
N3          N  0.99620356  0.49472844  0.56614841    -0.36600
N4          N  0.99750883  0.42535985  0.49476936    -0.57200
C5          C  0.00937346  0.53409161  0.39997413     0.27000
C6          C  0.00426383  0.45992157  0.39878082     0.27000
C7          C  0.98640673  0.53197757  0.59172176     0.27000
C8          C  0.98311999  0.45758090  0.59046712     0.27000
C9          C  0.01714941  0.59300796  0.46146349     0.35600
C10         C  0.00851093  0.59226082  0.53536693     0.35600
C11         C  0.00576411  0.39858594  0.45803055     0.35600
C12         C  0.99887322  0.39773857  0.53184129     0.35600
C13         C  0.99949107  0.52159895  0.35509907    -0.21900
C14         C  0.99642271  0.47489811  0.35433671    -0.21900
C15         C  0.96694559  0.51825162  0.63283911    -0.21900
C16         C  0.96495698  0.47132526  0.63207075    -0.21900
C17         C  0.02729079  0.63662183  0.47682818    -0.22900
C18         C  0.02193555  0.63612790  0.52363057    -0.22900
C19         C  0.01172615  0.35368842  0.47166624    -0.22900
C20         C  0.00774296  0.35318596  0.51849330    -0.22900
C21         C  0.01590222  0.57967856  0.41480935    -0.18300
C22         C  0.00493508  0.41351647  0.41207443    -0.18300
C23         C  0.98947531  0.41155492  0.57725491    -0.18300
C24         C  0.99704321  0.57781623  0.58027119    -0.18300
H25         H  0.99472398  0.54378283  0.32578733     0.14600
H26         H  0.98915650  0.45436202  0.32434331     0.14600
H27         H  0.95571621  0.53980425  0.66073778     0.14600
H28         H  0.95189715  0.44975067  0.65919918     0.14600
H29         H  0.03716605  0.66585393  0.45640084     0.12900
H30         H  0.02688702  0.66493478  0.54632126     0.12900
H31         H  0.01811826  0.32433911  0.45011661     0.12900
H32         H  0.01048416  0.32327032  0.54011283     0.12900
H33         H  0.02455667  0.49492029  0.45986938     0.26200
H34         H  0.01572483  0.49435915  0.53651054     0.26200
O35         O  0.00395228  0.12632642  0.07438781    -0.80100
O36         O  0.00147604  0.86515955  0.07115966    -0.81700
O37         O  0.92894459  0.99603913  0.12814721    -0.78700
O38         O  0.07916431  0.99468932  0.12693766    -0.77100
O39         O  0.13338615  0.99595630  0.07060242    -0.78900
O40         O  0.87218986  0.99760260  0.07398335    -0.79800
O41         O  0.00153789  0.92061212  0.12631975    -0.81100
O42         O  0.00474218  0.06975376  0.12854206    -0.81400
Eu43       Eu  0.00352847  0.99587495  0.08956889     2.39200
O44         O  0.04957627  0.95006283  0.04270650    -0.88900
O45         O  0.95659095  0.04290291  0.04415857    -0.92500
C46         C  0.00477498  0.11205835  0.11630960     1.02200
C47         C  0.00053904  0.87850477  0.11338366     1.02000
C48         C  0.88640076  0.99696540  0.11606698     1.01900
C49         C  0.12109640  0.99494259  0.11306272     0.99800
H50         H  0.93758181  0.93090147  0.06210259     0.29500
O51         O  0.95656850  0.94991509  0.04304627    -1.01300
H52         H  0.06923365  0.06179522  0.06262306     0.29600
O53         O  0.04966231  0.04320358  0.04359294    -1.03900
O54         O  0.99788624  0.86702563  0.92020389    -0.81100
O55         O  0.00092711  0.12788204  0.92312798    -0.80600
O56         O  0.87180857  0.92129295  0.99701762    -0.79100
O57         O  0.13305811  0.92319858  0.00036214    -0.82400
O58         O  0.13296108  0.07094872  0.99442292    -0.80300
O59         O  0.87289931  0.07251174  0.99913906    -0.78900
O60         O  0.92710542  0.99760890  0.86689284    -0.80400
O61         O  0.07623258  0.99918319  0.86500714    -0.82400
O62         O  0.87132906  0.99584383  0.92162309    -0.79100
O63         O  0.13177724  0.99663489  0.92033536    -0.81800
O64         O  0.92813268  0.86720663  0.99575274    -0.77500
O65         O  0.92732807  0.12869455  0.00121211    -0.77500
O66         O  0.07930278  0.12765589  0.99460989    -0.77200
O67         O  0.07893263  0.86687524  0.00013016    -0.80700
O68         O  0.99565673  0.92358980  0.86617383    -0.80100
O69         O  0.00070066  0.07365237  0.86680830    -0.78400
Eu70       Eu  0.00318061  0.90394589  0.99608456     2.39800
Eu71       Eu  0.00273936  0.09043361  0.99820818     2.39600
Eu72       Eu  0.90926636  0.99690534  0.99771570     2.38400
Eu73       Eu  0.09473922  0.99695150  0.99587372     2.39900
Eu74       Eu  0.00186993  0.99828498  0.90423635     2.39800
O75         O  0.04844503  0.04448552  0.95065419    -0.92800
O76         O  0.95641792  0.95165278  0.95113739    -0.91700
C77         C  0.99448205  0.88118271  0.87830786     1.02300
C78         C  0.00049750  0.11552794  0.88065335     1.01000
C79         C  0.88576857  0.87942495  0.99614731     1.00400
C80         C  0.12084394  0.88096860  0.00215598     1.02500
C81         C  0.12123952  0.11333058  0.99376014     1.01400
C82         C  0.88525513  0.11483698  0.00075042     1.00200
C83         C  0.88487855  0.99623066  0.87939757     1.00300
C84         C  0.11847373  0.99799602  0.87807442     1.02900
H85         H  0.93619051  0.06324380  0.93271561     0.30300
O86         O  0.95555670  0.04415270  0.95155030    -1.05000
H87         H  0.06794495  0.93122345  0.92927354     0.32300
O88         O  0.04913980  0.95017930  0.94867253    -1.07600
N89         N  0.49805442  0.01767439  0.56620451    -0.36600
N90         N  0.57129756  0.02335049  0.49870948    -0.57200
N91         N  0.50307157  0.03635616  0.42693644    -0.36600
N92         N  0.43040350  0.02695473  0.49455671    -0.57200
C93         C  0.53418738  0.00377870  0.59168225     0.27000
C94         C  0.45968523  0.00706129  0.58984243     0.27000
C95         C  0.54134312  0.03000749  0.40167183     0.27000
C96         C  0.46671937  0.02813724  0.39914426     0.27000
C97         C  0.59643055  0.02565102  0.53768805     0.35600
C98         C  0.59902803  0.03685303  0.46418028     0.35600
C99         C  0.40201276  0.02886950  0.53098179     0.35600
C100        C  0.40438335  0.03501366  0.45709389     0.35600
C101        C  0.51854390  0.98374580  0.63183490    -0.21900
C102        C  0.47156091  0.98621451  0.63086434    -0.21900
C103        C  0.52913786  0.01820356  0.35723572    -0.21900
C104        C  0.48217144  0.01729970  0.35556802    -0.21900
C105        C  0.64036368  0.04054321  0.52782623    -0.22900
C106        C  0.64200409  0.04761431  0.48125296    -0.22900
C107        C  0.35767063  0.03764972  0.51657245    -0.22900
C108        C  0.35907544  0.04118103  0.46983534    -0.22900
C109        C  0.58077133  0.01264110  0.58172238    -0.18300
C110        C  0.41454105  0.01840563  0.57656405    -0.18300
C111        C  0.42000482  0.03226592  0.41136436    -0.18300
C112        C  0.58697092  0.03617890  0.41713051    -0.18300
H113        H  0.53890932  0.96976088  0.65953529     0.14600
H114        H  0.44889159  0.97438856  0.65761850     0.14600
H115        H  0.55168176  0.01090142  0.32881529     0.14600
H116        H  0.46187140  0.00962396  0.32545885     0.14600
H117        H  0.66837743  0.04569085  0.55163568     0.12900
H118        H  0.67153378  0.05907008  0.46210884     0.12900
H119        H  0.32706620  0.03944100  0.53727693     0.12900
H120        H  0.32959767  0.04629100  0.44793873     0.12900
H121        H  0.49971568  0.03863504  0.53753346     0.26200
H122        H  0.50191573  0.04999864  0.45978440     0.26200
N123        N  0.50529379  0.42781942  0.00731800    -0.36600
N124        N  0.57260854  0.50075194  0.00907845    -0.57200
N125        N  0.49855029  0.56816353  0.00493765    -0.36600
N126        N  0.43183602  0.49536964  0.99712488    -0.57200
C127        C  0.54418168  0.40292620  0.00390839     0.27000
C128        C  0.46979436  0.39997257  0.99675254     0.27000
C129        C  0.53531756  0.59534681  0.99795197     0.27000
C130        C  0.46098582  0.59234990  0.99268333     0.27000
C131        C  0.60084199  0.46527484  0.01827686     0.35600
C132        C  0.59725472  0.53922019  0.01607229     0.35600
C133        C  0.40626585  0.45714425  0.00112362     0.35600
C134        C  0.40261119  0.53097339  0.00051970     0.35600
C135        C  0.53302979  0.35841185  0.99208336    -0.21900
C136        C  0.48623502  0.35662471  0.98736783    -0.21900
C137        C  0.52084982  0.63737970  0.98141285    -0.21900
C138        C  0.47398896  0.63550903  0.97820330    -0.21900
C139        C  0.64382725  0.48134288  0.03040752    -0.22900
C140        C  0.64146867  0.52809421  0.02935094    -0.22900
C141        C  0.36056242  0.46857401  0.00669309    -0.22900
C142        C  0.35827511  0.51529709  0.00643797    -0.22900
C143        C  0.58920097  0.41856694  0.01339595    -0.18300
C144        C  0.42281430  0.41196870  0.99694614    -0.18300
C145        C  0.41508898  0.57738237  0.99601854    -0.18300
C146        C  0.58142479  0.58420739  0.00805429    -0.18300
H147        H  0.55605370  0.32991331  0.98753148     0.14600
H148        H  0.46655024  0.32660430  0.97840423     0.14600
H149        H  0.54185608  0.66652007  0.97261124     0.14600
H150        H  0.45199231  0.66284140  0.96644281     0.14600
H151        H  0.67391496  0.46153024  0.03886016     0.12900
H152        H  0.66935667  0.55119842  0.03708396     0.12900
H153        H  0.33174933  0.44562477  0.01033572     0.12900
H154        H  0.32739839  0.53533373  0.00982220     0.12900
H155        H  0.50266230  0.46054383  0.02043089     0.26200
H156        H  0.49876312  0.53704070  0.02193038     0.26200
C157        C  0.61536655  0.62197186  0.00894989    -0.03200
C158        C  0.61236151  0.65635283  0.04222763    -0.05800
C159        C  0.64402676  0.69210657  0.04283633    -0.20900
C160        C  0.67946154  0.69390896  0.01049437     0.24900
C161        C  0.68210807  0.65952172  0.97686232    -0.18400
C162        C  0.65028190  0.62392022  0.97615051    -0.08400
C163        C  0.71176600  0.73304738  0.01182442    -0.18700
C164        C  0.75413298  0.73142471  0.99398040    -0.23500
C165        C  0.78664587  0.77036570  0.99525767     0.26900
C166        C  0.83348177  0.76115866  0.99134447    -0.20300
C167        C  0.86540387  0.79654928  0.99174658    -0.09900
C168        C  0.85124836  0.84227387  0.99565491    -0.10400
C169        C  0.80421811  0.85165253  0.99895117    -0.03400
C170        C  0.77219318  0.81607874  0.99866561    -0.18500
H171        H  0.58541478  0.65547221  0.06762820     0.10600
H172        H  0.64096804  0.71835442  0.06878169     0.10700
H173        H  0.70791960  0.66043340  0.95039973     0.10300
H174        H  0.65264307  0.59795617  0.94984560     0.11400
H175        H  0.70080823  0.76340297  0.03000212     0.11500
H176        H  0.76665552  0.69959685  0.97978246     0.13400
H177        H  0.84550435  0.72634083  0.98822477     0.10000
H178        H  0.90128656  0.78789777  0.98884537     0.12100
H179        H  0.79210124  0.88644940  0.00162912     0.08700
H180        H  0.73626365  0.82467144  0.00025796     0.11400
C181        C  0.62628085  0.38390770  0.01765449    -0.03200
C182        C  0.64248650  0.37068524  0.06103744    -0.05800
C183        C  0.67679595  0.33752640  0.06509969    -0.20900
C184        C  0.69485637  0.31637831  0.02591905     0.24900
C185        C  0.67856121  0.32980587  0.98245971    -0.18400
C186        C  0.64482006  0.36346131  0.97839938    -0.08400
C187        C  0.73232973  0.28230603  0.03087881    -0.18700
C188        C  0.73690832  0.24659855  0.00218759    -0.23500
C189        C  0.77533056  0.21339484  0.00453646     0.26900
C190        C  0.76763870  0.16855129  0.98970651    -0.20300
C191        C  0.80329003  0.13686281  0.98879630    -0.09900
C192        C  0.84796426  0.14937763  0.00188634    -0.10400
C193        C  0.85593861  0.19456356  0.01625204    -0.03400
C194        C  0.81989235  0.22620125  0.01787849    -0.18500
H195        H  0.62857534  0.38614181  0.09169238     0.10600
H196        H  0.68899794  0.32806738  0.09890799     0.10700
H197        H  0.69258562  0.31507682  0.95152502     0.10300
H198        H  0.63291793  0.37344633  0.94464001     0.11400
H199        H  0.75584916  0.28603866  0.05955767     0.11500
H200        H  0.71053873  0.24046496  0.97655790     0.13400
H201        H  0.73379840  0.15794528  0.97876481     0.10000
H202        H  0.79584989  0.10254206  0.97718812     0.12100
H203        H  0.88991955  0.20538836  0.02645463     0.08700
H204        H  0.82717382  0.26088231  0.02838941     0.11400
C205        C  0.15788495  0.84679263  0.00743372    -0.03200
C206        C  0.20309801  0.86120674  0.01605230    -0.05800
C207        C  0.23843774  0.82951067  0.02040458    -0.20900
C208        C  0.22964897  0.78280213  0.01541471     0.24900
C209        C  0.18435679  0.76804599  0.00829869    -0.18400
C210        C  0.14877285  0.79976149  0.00449652    -0.08400
C211        C  0.26838560  0.75034288  0.01811106    -0.18700
C212        C  0.27031334  0.71246025  0.99206881    -0.23500
C213        C  0.30891658  0.67940051  0.99314172     0.26900
C214        C  0.31327969  0.64807866  0.95692281    -0.20300
C215        C  0.34775882  0.61498372  0.95756270    -0.09900
C216        C  0.37840037  0.61252127  0.99461156    -0.10400
C217        C  0.37444998  0.64390784  0.03063190    -0.03400
C218        C  0.34001133  0.67693353  0.03008503    -0.18500
H219        H  0.21135778  0.89709323  0.01937196     0.10600
H220        H  0.27296175  0.84158768  0.02660591     0.10700
H221        H  0.17639018  0.73203791  0.00589357     0.10300
H222        H  0.11427677  0.78745159  0.99876763     0.11400
H223        H  0.29722375  0.75993202  0.03953491     0.11500
H224        H  0.24292835  0.70604183  0.96760389     0.13400
H225        H  0.28979329  0.64909741  0.92811676     0.10000
H226        H  0.35048158  0.59116929  0.92932057     0.12100
H227        H  0.39780219  0.64239280  0.05951923     0.08700
H228        H  0.33738783  0.69948227  0.05925251     0.11400
C229        C  0.15932080  0.14706974  0.99234584    -0.03200
C230        C  0.20436625  0.13251049  0.00132575    -0.05800
C231        C  0.24069807  0.16336591  0.00114974    -0.20900
C232        C  0.23337539  0.20958912  0.99148144     0.24900
C233        C  0.18852492  0.22443281  0.98166083    -0.18400
C234        C  0.15181565  0.19341962  0.98222193    -0.08400
C235        C  0.27307493  0.24115760  0.99521634    -0.18700
C236        C  0.27569020  0.28193973  0.97422692    -0.23500
C237        C  0.31587450  0.31259014  0.97980687     0.26900
C238        C  0.32810131  0.34165894  0.94360667    -0.20300
C239        C  0.36421694  0.37256117  0.94865121    -0.09900
C240        C  0.38829862  0.37536498  0.99023629    -0.10400
C241        C  0.37674622  0.34600320  0.02636022    -0.03400
C242        C  0.34078116  0.31482705  0.02124171    -0.18500
H243        H  0.21167449  0.09716776  0.00933597     0.10600
H244        H  0.27477702  0.15103248  0.00899772     0.10700
H245        H  0.18142704  0.26003008  0.97489721     0.10300
H246        H  0.11763074  0.20573399  0.97497308     0.11400
H247        H  0.30232042  0.22932136  0.01498769     0.11500
H248        H  0.24877654  0.29244462  0.95075855     0.13400
H249        H  0.30940707  0.34068039  0.91148344     0.10000
H250        H  0.37266555  0.39523666  0.92056219     0.12100
H251        H  0.39464818  0.34824041  0.05887091     0.08700
H252        H  0.33151731  0.29373726  0.05025332     0.11400
C253        C  0.85007429  0.99476159  0.84216119    -0.03200
C254        C  0.86391970  0.99602644  0.79595260    -0.05800
C255        C  0.83176767  0.99402731  0.76051848    -0.20900
C256        C  0.78492276  0.99118047  0.77015532     0.24900
C257        C  0.77084854  0.98945390  0.81629316    -0.18400
C258        C  0.80311623  0.99130751  0.85190519    -0.08400
C259        C  0.75211699  0.98924896  0.73111000    -0.18700
C260        C  0.70854113  0.00374357  0.73398471    -0.23500
C261        C  0.67668148  0.00494281  0.69413900     0.26900
C262        C  0.64079689  0.03669466  0.69446982    -0.20300
C263        C  0.61011355  0.03932938  0.65776093    -0.09900
C264        C  0.61430659  0.00983318  0.62015111    -0.10400
C265        C  0.64966343  0.97746239  0.61987755    -0.03400
C266        C  0.68064520  0.97497836  0.65656618    -0.18500
H267        H  0.89975314  0.99848413  0.78694007     0.10600
H268        H  0.84356793  0.99513004  0.72534668     0.10700
H269        H  0.73509497  0.98588232  0.82506991     0.10300
H270        H  0.79126975  0.98971353  0.88701677     0.11400
H271        H  0.76544642  0.97862720  0.69809721     0.11500
H272        H  0.69652723  0.01849890  0.76587664     0.13400
H273        H  0.63676975  0.05991039  0.72306166     0.10000
H274        H  0.58292270  0.06439379  0.65865279     0.12100
H275        H  0.65300865  0.95398572  0.59141790     0.08700
H276        H  0.70701805  0.94913258  0.65571802     0.11400
C277        C  0.15431281  0.99761185  0.84225836    -0.03200
C278        C  0.14507788  0.01329466  0.79755458    -0.05800
C279        C  0.17923908  0.01261439  0.76397695    -0.20900
C280        C  0.22307710  0.99568760  0.77443268     0.24900
C281        C  0.23202329  0.97956409  0.81881766    -0.18400
C282        C  0.19824405  0.98096309  0.85251071    -0.08400
C283        C  0.25983426  0.99271154  0.73967321    -0.18700
C284        C  0.26485658  0.02308602  0.70548274    -0.23500
C285        C  0.30382225  0.02090605  0.67314544     0.26900
C286        C  0.32330807  0.06164362  0.65713258    -0.20300
C287        C  0.36039061  0.06059888  0.62703548    -0.09900
C288        C  0.37796849  0.01878082  0.61174165    -0.10400
C289        C  0.35804659  0.97796142  0.62693456    -0.03400
C290        C  0.32141267  0.97896578  0.65766535    -0.18500
H291        H  0.11153236  0.02626846  0.78859785     0.10600
H292        H  0.17101969  0.02439047  0.72973503     0.10700
H293        H  0.26544261  0.96609543  0.82755207     0.10300
H294        H  0.20636620  0.96828231  0.88647009     0.11400
H295        H  0.28564696  0.96646675  0.74446237     0.11500
H296        H  0.24205039  0.05225653  0.70332012     0.13400
H297        H  0.31006845  0.09429762  0.66828748     0.10000
H298        H  0.37491949  0.09240582  0.61491007     0.12100
H299        H  0.37053359  0.94546455  0.61454115     0.08700
H300        H  0.30624669  0.94701945  0.66848722     0.11400
C301        C  0.38474572  0.03052523  0.37470325    -0.03200
C302        C  0.35874963  0.06941270  0.36431361    -0.05800
C303        C  0.32123318  0.06624734  0.33469657    -0.20900
C304        C  0.31006135  0.02455656  0.31384086     0.24900
C305        C  0.33687134  0.98582575  0.32346622    -0.18400
C306        C  0.37372712  0.98878992  0.35393193    -0.08400
C307        C  0.26964457  0.02234308  0.28314223    -0.18700
C308        C  0.26752834  0.99400569  0.24697313    -0.23500
C309        C  0.22901065  0.99404464  0.21383055     0.26900
C310        C  0.23775892  0.98173657  0.16828291    -0.20300
C311        C  0.20273921  0.98213600  0.13565015    -0.09900
C312        C  0.15789428  0.99410076  0.14808070    -0.10400
C313        C  0.14883672  0.00537668  0.19403088    -0.03400
C314        C  0.18408387  0.00546590  0.22662286    -0.18500
H315        H  0.36645384  0.10172218  0.38064718     0.10600
H316        H  0.30085627  0.09640406  0.32804849     0.10700
H317        H  0.32850628  0.95293069  0.30881084     0.10300
H318        H  0.39300341  0.95832285  0.36225752     0.11400
H319        H  0.24260123  0.04714292  0.28845755     0.11500
H320        H  0.29677184  0.97260442  0.23907910     0.13400
H321        H  0.27201195  0.97243746  0.15773835     0.10000
H322        H  0.21080897  0.97281233  0.10066683     0.12100
H323        H  0.11461815  0.01457737  0.20472049     0.08700
H324        H  0.17596528  0.01393974  0.26178073     0.11400
C325        C  0.62400692  0.03786529  0.38202806    -0.03200
C326        C  0.62427908  0.07185119  0.34802795    -0.05800
C327        C  0.65577017  0.07002622  0.31193936    -0.20900
C328        C  0.68786187  0.03440913  0.30917754     0.24900
C329        C  0.68800078  0.00092249  0.34396368    -0.18400
C330        C  0.65654117  0.00280942  0.37997211    -0.08400
C331        C  0.71881849  0.03216706  0.26849195    -0.18700
C332        C  0.75729733  0.00674743  0.26711510    -0.23500
C333        C  0.78870219  0.00393533  0.22694121     0.26900
C334        C  0.83329189  0.98771863  0.23433929    -0.20300
C335        C  0.86454095  0.98488841  0.19829423    -0.09900
C336        C  0.85192949  0.99772341  0.15352220    -0.10400
C337        C  0.80677507  0.01244150  0.14559645    -0.03400
C338        C  0.77547742  0.01562635  0.18189504    -0.18500
H339        H  0.59923158  0.09904941  0.34878023     0.10600
H340        H  0.65458653  0.09617077  0.28567655     0.10700
H341        H  0.71099342  0.97212469  0.34288117     0.10300
H342        H  0.65644815  0.97586592  0.40542728     0.11400
H343        H  0.71003179  0.05338847  0.23927209     0.11500
H344        H  0.76800781  0.98852230  0.29766525     0.13400
H345        H  0.84430580  0.97774394  0.26841588     0.10000
H346        H  0.89877424  0.97272557  0.20562641     0.12100
H347        H  0.79583832  0.02227531  0.11147474     0.08700
H348        H  0.74105779  0.02687947  0.17432898     0.11400
C349        C  0.98635884  0.37552898  0.61286349    -0.03200
C350        C  0.94912122  0.34530178  0.61353533    -0.05800
C351        C  0.94871427  0.30845952  0.64403769    -0.20900
C352        C  0.98526733  0.30152425  0.67460406     0.24900
C353        C  0.02244868  0.33216514  0.67397238    -0.18400
C354        C  0.02282710  0.36894288  0.64344540    -0.08400
C355        C  0.98410562  0.26151763  0.70586978    -0.18700
C356        C  0.00503656  0.26153368  0.74699606    -0.23500
C357        C  0.00198076  0.22318444  0.77998092     0.26900
C358        C  0.00474332  0.23308876  0.82687089    -0.20300
C359        C  0.00340675  0.19820660  0.85935625    -0.09900
C360        C  0.00004584  0.15230435  0.84567656    -0.10400
C361        C  0.99718046  0.14227240  0.79854818    -0.03400
C362        C  0.99807410  0.17740700  0.76595084    -0.18500
H363        H  0.92094334  0.34973007  0.58973256     0.10600
H364        H  0.91984351  0.28524161  0.64371118     0.10700
H365        H  0.05186729  0.32714879  0.69601218     0.10300
H366        H  0.05217635  0.39154365  0.64268484     0.11400
H367        H  0.96291189  0.23262263  0.69609061     0.11500
H368        H  0.02235532  0.29222171  0.75866548     0.13400
H369        H  0.00785233  0.26807900  0.83846315     0.10000
H370        H  0.00563836  0.20734612  0.89526890     0.12100
H371        H  0.99466765  0.10730726  0.78680429     0.08700
H372        H  0.99684010  0.16860688  0.72992675     0.11400
C373        C  0.99647528  0.61230783  0.61776691    -0.03200
C374        C  0.03067582  0.61162892  0.65156026    -0.05800
C375        C  0.03017440  0.64325064  0.68743234    -0.20900
C376        C  0.99555190  0.67635187  0.69034755     0.24900
C377        C  0.96095905  0.67674336  0.65648166    -0.18400
C378        C  0.96157080  0.64504146  0.62045675    -0.08400
C379        C  0.99653159  0.70865709  0.72990571    -0.18700
C380        C  0.97387698  0.74871743  0.73119718    -0.23500
C381        C  0.97801549  0.78154518  0.77006485     0.26900
C382        C  0.97135592  0.82818526  0.76149099    -0.20300
C383        C  0.97671171  0.86034408  0.79654029    -0.09900
C384        C  0.98830174  0.84661972  0.84137768    -0.10400
C385        C  0.99320672  0.79969629  0.85040949    -0.03400
C386        C  0.98817329  0.76752130  0.81518767    -0.18500
H387        H  0.05776194  0.58648057  0.65013663     0.10600
H388        H  0.05708742  0.64188303  0.71303182     0.10700
H389        H  0.93295508  0.70074306  0.65797840     0.10300
H390        H  0.93458345  0.64566986  0.59491810     0.11400
H391        H  0.01919734  0.70002845  0.75816799     0.11500
H392        H  0.95430699  0.75968510  0.70151242     0.13400
H393        H  0.96281797  0.83991898  0.72727733     0.10000
H394        H  0.97176236  0.89606162  0.78838298     0.12100
H395        H  0.00131172  0.78778026  0.88464493     0.08700
H396        H  0.99188893  0.73174582  0.82356064     0.11400
C397        C  0.99725272  0.84348454  0.14991454    -0.03200
C398        C  0.98123591  0.85573174  0.19360385    -0.05800
C399        C  0.97856463  0.82345046  0.22867565    -0.20900
C400        C  0.99248069  0.77830014  0.22129549     0.24900
C401        C  0.00740786  0.76553269  0.17724130    -0.18400
C402        C  0.00964342  0.79785351  0.14185436    -0.08400
C403        C  0.99028346  0.74582914  0.26040723    -0.18700
C404        C  0.01688047  0.70846801  0.26401232    -0.23500
C405        C  0.01660367  0.67741879  0.30450441     0.26900
C406        C  0.05384031  0.64780908  0.31111823    -0.20300
C407        C  0.05457700  0.61728026  0.34801055    -0.09900
C408        C  0.01792409  0.61565835  0.37890529    -0.10400
C409        C  0.98077484  0.64521940  0.37266963    -0.03400
C410        C  0.97992747  0.67568500  0.33576489    -0.18500
H411        H  0.97054239  0.89037540  0.20074552     0.10600
H412        H  0.96626438  0.83403730  0.26202006     0.10700
H413        H  0.01695166  0.73067244  0.16980899     0.10300
H414        H  0.02160410  0.78726953  0.10840163     0.11400
H415        H  0.96824391  0.75526668  0.28867241     0.11500
H416        H  0.04177649  0.70147526  0.23740127     0.13400
H417        H  0.08232770  0.64805889  0.28744604     0.10000
H418        H  0.08319588  0.59413828  0.35191830     0.12100
H419        H  0.95174988  0.64363838  0.39562537     0.08700
H420        H  0.94983780  0.69662470  0.33134040     0.11400
C421        C  0.00166979  0.37859384  0.37556290    -0.03200
C422        C  0.95857233  0.36430450  0.35997959    -0.05800
C423        C  0.95503745  0.33319911  0.32391035    -0.20900
C424        C  0.99450954  0.31520895  0.30364065     0.24900
C425        C  0.03778123  0.32941935  0.31948857    -0.18400
C426        C  0.04128673  0.36112703  0.35514893    -0.08400
C427        C  0.98949523  0.28252846  0.26534514    -0.18400
C428        C  0.01764007  0.24669570  0.26028893    -0.23500
C429        C  0.01220069  0.21251946  0.22325013     0.26900
C430        C  0.02847799  0.16813592  0.23064087    -0.20300
C431        C  0.02531922  0.13531140  0.19612631    -0.09900
C432        C  0.00654702  0.14651600  0.15314961    -0.10400
C433        C  0.99032422  0.19098710  0.14560799    -0.03400
C434        C  0.99294598  0.22368841  0.18038340    -0.18500
H435        H  0.92774984  0.37781578  0.37535251     0.10600
H436        H  0.92143642  0.32283055  0.31204285     0.10700
H437        H  0.06876700  0.31680217  0.30371995     0.10300
H438        H  0.07474465  0.37233794  0.36661864     0.11400
H439        H  0.95994349  0.28624410  0.24299355     0.11500
H440        H  0.04418836  0.24073460  0.28578016     0.13400
H441        H  0.04368250  0.15882921  0.26326583     0.10000
H442        H  0.03844801  0.10138623  0.20279186     0.12100
H443        H  0.97562964  0.20049763  0.11281706     0.08700
H444        H  0.98099995  0.25788046  0.17314980     0.11400
loop_ 
_geom_bond_atom_site_label_1 
_geom_bond_atom_site_label_2 
_geom_bond_distance 
_geom_bond_site_symmetry_2 
_ccdc_geom_bond_type 
N1            C6   1.354       .  A
N1            C5   1.353       .  A
N1           H33   1.037       .  S
N2            C9   1.353       .  A
N2           C10   1.353       .  A
N3            C8   1.354       .  A
N3            C7   1.354       .  A
N3           H34   1.037   1_655  S
N4           C11   1.351   1_655  A
N4           C12   1.350       .  A
C5           C13   1.388   1_455  A
C5           C21   1.417       .  A
C6           C22   1.414       .  A
C6           C14   1.386   1_455  A
C7           C15   1.388       .  A
C7           C24   1.418       .  A
C8           C23   1.416       .  A
C8           C16   1.386       .  A
C9           C21   1.416       .  A
C9           C17   1.386       .  A
C10          C24   1.417   1_455  A
C10          C18   1.386       .  A
C11          C19   1.385       .  A
C11          C22   1.409       .  A
C12          C20   1.388   1_655  A
C12          C23   1.413       .  A
C13          C14   1.372       .  A
C13          H25   1.082       .  S
C14          H26   1.082       .  S
C15          C16   1.376       .  A
C15          H27   1.082       .  S
C16          H28   1.082       .  S
C17          C18   1.374       .  A
C17          H29   1.082       .  S
C18          H30   1.082       .  S
C19          C20   1.371       .  A
C19          H31   1.082       .  S
C20          H32   1.082       .  S
C21         C408   1.486       .  S
C22         C421   1.480       .  S
C23         C349   1.483       .  S
C24         C373   1.490       .  S
O35          C46   1.292       .  A
O35         Eu71   2.459   1_554  S
O36          C47   1.293       .  A
O36         Eu70   2.466   1_554  S
O37          C48   1.292       .  A
O37         Eu43   2.456   1_655  S
O38          C49   1.292       .  A
O38         Eu43   2.462       .  S
O39          C49   1.291       .  A
O39         Eu73   2.451   1_554  S
O40          C48   1.294       .  A
O40         Eu72   2.477   1_554  S
O41          C47   1.291       .  A
O41         Eu43   2.452       .  S
O42          C46   1.290       .  A
O42         Eu43   2.446   1_545  S
Eu43         O53   2.354   1_565  S
Eu43         O45   2.350   1_465  S
Eu43         O44   2.345       .  S
Eu43         O51   2.350   1_455  S
O44         Eu73   2.345   1_554  S
O44         Eu70   2.345   1_554  S
O45         Eu71   2.358   1_654  S
O45         Eu72   2.356   1_544  S
C46         C432   1.476       .  S
C47         C397   1.482   1_455  S
C48         C336   1.489       .  S
C49         C312   1.481       .  S
H50          O51   0.963       .  S
O51         Eu72   2.355   1_554  S
O51         Eu70   2.359   1_654  S
H52          O53   0.964       .  S
O53         Eu71   2.353   1_554  S
O53         Eu73   2.351   1_544  S
O54          C77   1.293       .  A
O54         Eu70   2.468   1_655  S
O55          C78   1.291       .  A
O55         Eu71   2.448       .  S
O56          C79   1.294       .  A
O56         Eu72   2.470       .  S
O57          C80   1.289       .  A
O57         Eu73   2.439   1_554  S
O58          C81   1.289       .  A
O58         Eu73   2.438   1_545  S
O59          C82   1.292   1_556  A
O59         Eu72   2.459   1_545  S
O60          C83   1.289       .  A
O60         Eu74   2.438   1_655  S
O61          C84   1.291       .  A
O61         Eu74   2.460       .  S
O62          C83   1.295       .  A
O62         Eu72   2.477       .  S
O63          C84   1.291       .  A
O63         Eu73   2.458       .  S
O64          C79   1.289       .  A
O64         Eu70   2.442   1_655  S
O65          C82   1.294       .  A
O65         Eu71   2.476   1_654  S
O66          C81   1.296       .  A
O66         Eu71   2.491       .  S
O67          C80   1.293       .  A
O67         Eu70   2.470   1_554  S
O68          C77   1.292       .  A
O68         Eu74   2.461   1_655  S
O69          C78   1.292       .  A
O69         Eu74   2.463   1_545  S
Eu70         O88   2.357       .  S
Eu70         O76   2.352   1_455  S
Eu71         O75   2.354       .  S
Eu71         O86   2.362   1_455  S
Eu72         O86   2.359   1_565  S
Eu72         O76   2.350       .  S
Eu73         O75   2.345   1_565  S
Eu73         O88   2.353       .  S
Eu74         O75   2.346   1_565  S
Eu74         O86   2.359   1_465  S
Eu74         O88   2.359       .  S
Eu74         O76   2.347   1_455  S
C77         C384   1.489       .  S
C78         C360   1.483       .  S
C79         C168   1.483       .  S
C80         C205   1.483       .  S
C81         C229   1.488       .  S
C82         C192   1.489       .  S
C83         C253   1.486       .  S
C84         C277   1.482       .  S
H85          O86   0.966       .  S
H87          O88   0.966       .  S
N89          C94   1.354       .  A
N89          C93   1.352       .  A
N89         H121   1.038       .  S
N90          C97   1.353       .  A
N90          C98   1.353       .  A
N91          C96   1.355       .  A
N91          C95   1.355       .  A
N91         H122   1.039       .  S
N92          C99   1.351       .  A
N92         C100   1.350       .  A
C93         C101   1.388   1_545  A
C93         C109   1.417       .  A
C94         C110   1.414       .  A
C94         C102   1.386   1_545  A
C95         C103   1.387       .  A
C95         C112   1.418       .  A
C96         C111   1.418       .  A
C96         C104   1.387       .  A
C97         C109   1.416       .  A
C97         C105   1.387       .  A
C98         C112   1.415       .  A
C98         C106   1.386       .  A
C99         C107   1.385       .  A
C99         C110   1.411       .  A
C100        C108   1.389       .  A
C100        C111   1.413       .  A
C101        C102   1.375       .  A
C101        H113   1.082       .  S
C102        H114   1.082       .  S
C103        C104   1.374       .  A
C103        H115   1.082       .  S
C104        H116   1.082       .  S
C105        C106   1.375       .  A
C105        H117   1.082       .  S
C106        H118   1.082       .  S
C107        C108   1.367       .  A
C107        H119   1.082       .  S
C108        H120   1.081       .  S
C109        C264   1.488       .  S
C110        C288   1.484       .  S
C111        C301   1.483       .  S
C112        C325   1.493       .  S
N123        C128   1.354   1_554  A
N123        C127   1.355       .  A
N123        H155   1.036       .  S
N124        C131   1.354       .  A
N124        C132   1.352       .  A
N125        C130   1.354   1_554  A
N125        C129   1.353   1_554  A
N125        H156   1.038       .  S
N126        C133   1.351   1_556  A
N126        C134   1.353   1_556  A
C127        C135   1.388   1_554  A
C127        C143   1.419       .  A
C128        C144   1.418       .  A
C128        C136   1.387       .  A
C129        C137   1.388       .  A
C129        C146   1.417   1_556  A
C130        C145   1.414       .  A
C130        C138   1.386       .  A
C131        C143   1.417       .  A
C131        C139   1.386       .  A
C132        C146   1.417       .  A
C132        C140   1.387       .  A
C133        C141   1.388       .  A
C133        C144   1.416   1_554  A
C134        C142   1.386       .  A
C134        C145   1.414   1_554  A
C135        C136   1.375       .  A
C135        H147   1.082       .  S
C136        H148   1.082       .  S
C137        C138   1.373       .  A
C137        H149   1.082       .  S
C138        H150   1.083       .  S
C139        C140   1.372       .  A
C139        H151   1.082       .  S
C140        H152   1.082       .  S
C141        C142   1.371       .  A
C141        H153   1.082       .  S
C142        H154   1.082       .  S
C143        C181   1.491       .  S
C144        C240   1.484       .  S
C145        C216   1.488       .  S
C146        C157   1.485       .  S
C157        C158   1.402       .  A
C157        C162   1.402   1_554  A
C158        C159   1.397       .  A
C158        H171   1.083       .  S
C159        C160   1.404       .  A
C159        H172   1.083       .  S
C160        C161   1.409   1_554  A
C160        C163   1.485       .  S
C161        C162   1.397       .  A
C161        H173   1.081       .  S
C162        H174   1.083       .  S
C163        C164   1.346   1_554  D
C163        H175   1.085       .  S
C164        C165   1.484       .  S
C164        H176   1.085       .  S
C165        C166   1.401       .  A
C165        C170   1.409       .  A
C166        C167   1.394       .  A
C166        H177   1.084       .  S
C167        C168   1.408       .  A
C167        H178   1.083       .  S
C168        C169   1.406       .  A
C169        C170   1.400       .  A
C169        H179   1.083   1_556  S
C170        H180   1.081   1_556  S
C181        C182   1.404       .  A
C181        C186   1.403   1_554  A
C182        C183   1.402       .  A
C182        H195   1.083       .  S
C183        C184   1.405       .  A
C183        H196   1.083       .  S
C184        C185   1.408   1_554  A
C184        C187   1.490       .  S
C185        C186   1.400       .  A
C185        H197   1.082       .  S
C186        H198   1.083       .  S
C187        C188   1.347       .  D
C187        H199   1.086       .  S
C188        C189   1.488       .  S
C188        H200   1.087   1_554  S
C189        C190   1.401   1_554  A
C189        C194   1.409       .  A
C190        C191   1.397       .  A
C190        H201   1.083       .  S
C191        C192   1.407   1_556  A
C191        H202   1.083       .  S
C192        C193   1.408       .  A
C193        C194   1.405       .  A
C193        H203   1.083       .  S
C194        H204   1.082       .  S
C205        C206   1.409       .  A
C205        C210   1.406       .  A
C206        C207   1.395       .  A
C206        H219   1.083       .  S
C207        C208   1.400       .  A
C207        H220   1.084       .  S
C208        C209   1.407       .  A
C208        C211   1.482       .  S
C209        C210   1.400       .  A
C209        H221   1.083       .  S
C210        H222   1.083   1_554  S
C211        C212   1.347   1_554  D
C211        H223   1.084       .  S
C212        C213   1.488       .  S
C212        H224   1.087       .  S
C213        C214   1.406       .  A
C213        C218   1.409   1_556  A
C214        C215   1.400       .  A
C214        H225   1.083       .  S
C215        C216   1.403       .  A
C215        H226   1.083       .  S
C216        C217   1.402   1_556  A
C217        C218   1.397       .  A
C217        H227   1.083       .  S
C218        H228   1.080       .  S
C229        C230   1.408   1_556  A
C229        C234   1.407       .  A
C230        C231   1.394       .  A
C230        H243   1.083       .  S
C231        C232   1.400   1_554  A
C231        H244   1.084       .  S
C232        C233   1.410       .  A
C232        C235   1.487       .  S
C233        C234   1.405       .  A
C233        H245   1.082       .  S
C234        H246   1.083       .  S
C235        C236   1.344       .  D
C235        H247   1.086   1_556  S
C236        C237   1.486       .  S
C236        H248   1.086       .  S
C237        C238   1.403       .  A
C237        C242   1.410   1_556  A
C238        C239   1.397       .  A
C238        H249   1.083       .  S
C239        C240   1.402       .  A
C239        H250   1.083       .  S
C240        C241   1.401   1_556  A
C241        C242   1.399       .  A
C241        H251   1.083       .  S
C242        H252   1.082       .  S
C253        C254   1.409       .  A
C253        C258   1.406       .  A
C254        C255   1.395       .  A
C254        H267   1.083       .  S
C255        C256   1.401       .  A
C255        H268   1.084       .  S
C256        C257   1.409       .  A
C256        C259   1.487       .  S
C257        C258   1.401       .  A
C257        H269   1.082       .  S
C258        H270   1.083       .  S
C259        C260   1.346   1_565  D
C259        H271   1.086       .  S
C260        C261   1.487       .  S
C260        H272   1.085       .  S
C261        C262   1.403       .  A
C261        C266   1.410   1_545  A
C262        C263   1.396       .  A
C262        H273   1.083       .  S
C263        C264   1.403       .  A
C263        H274   1.083       .  S
C264        C265   1.404   1_545  A
C265        C266   1.401       .  A
C265        H275   1.083       .  S
C266        H276   1.082       .  S
C277        C278   1.407   1_565  A
C277        C282   1.405       .  A
C278        C279   1.401       .  A
C278        H291   1.083       .  S
C279        C280   1.407   1_545  A
C279        H292   1.082       .  S
C280        C281   1.401       .  A
C280        C283   1.482       .  S
C281        C282   1.396       .  A
C281        H293   1.083       .  S
C282        H294   1.083       .  S
C283        C284   1.344   1_565  D
C283        H295   1.087       .  S
C284        C285   1.482       .  S
C284        H296   1.086       .  S
C285        C286   1.402       .  A
C285        C290   1.408   1_545  A
C286        C287   1.397       .  A
C286        H297   1.083       .  S
C287        C288   1.403       .  A
C287        H298   1.083       .  S
C288        C289   1.402   1_545  A
C289        C290   1.399       .  A
C289        H299   1.083       .  S
C290        H300   1.082       .  S
C301        C302   1.403       .  A
C301        C306   1.402   1_545  A
C302        C303   1.396       .  A
C302        H315   1.083       .  S
C303        C304   1.403       .  A
C303        H316   1.083       .  S
C304        C305   1.408   1_545  A
C304        C307   1.481       .  S
C305        C306   1.397       .  A
C305        H317   1.082       .  S
C306        H318   1.083       .  S
C307        C308   1.344   1_545  D
C307        H319   1.086       .  S
C308        C309   1.481       .  S
C308        H320   1.086       .  S
C309        C310   1.401       .  A
C309        C314   1.407   1_565  A
C310        C311   1.395       .  A
C310        H321   1.083       .  S
C311        C312   1.406       .  A
C311        H322   1.083       .  S
C312        C313   1.406   1_565  A
C313        C314   1.399       .  A
C313        H323   1.083       .  S
C314        H324   1.082       .  S
C325        C326   1.405       .  A
C325        C330   1.402       .  A
C326        C327   1.401       .  A
C326        H339   1.083       .  S
C327        C328   1.407       .  A
C327        H340   1.083       .  S
C328        C329   1.411       .  A
C328        C331   1.496       .  S
C329        C330   1.399       .  A
C329        H341   1.080   1_545  S
C330        H342   1.083   1_545  S
C331        C332   1.350       .  D
C331        H343   1.085       .  S
C332        C333   1.493       .  S
C332        H344   1.084   1_545  S
C333        C334   1.404   1_545  A
C333        C338   1.410       .  A
C334        C335   1.397       .  A
C334        H345   1.083       .  S
C335        C336   1.406       .  A
C335        H346   1.083       .  S
C336        C337   1.407   1_565  A
C337        C338   1.404       .  A
C337        H347   1.083       .  S
C338        H348   1.081       .  S
C349        C350   1.403       .  A
C349        C354   1.401   1_655  A
C350        C351   1.398       .  A
C350        H363   1.083       .  S
C351        C352   1.404       .  A
C351        H364   1.083       .  S
C352        C353   1.409   1_655  A
C352        C355   1.485       .  S
C353        C354   1.397       .  A
C353        H365   1.082       .  S
C354        H366   1.083       .  S
C355        C356   1.344   1_655  D
C355        H367   1.086       .  S
C356        C357   1.481       .  S
C356        H368   1.086       .  S
C357        C358   1.400       .  A
C357        C362   1.407   1_455  A
C358        C359   1.394       .  A
C358        H369   1.084       .  S
C359        C360   1.407       .  A
C359        H370   1.083       .  S
C360        C361   1.408   1_455  A
C361        C362   1.401       .  A
C361        H371   1.083       .  S
C362        H372   1.082       .  S
C373        C374   1.401   1_655  A
C373        C378   1.404       .  A
C374        C375   1.398       .  A
C374        H387   1.083       .  S
C375        C376   1.405   1_455  A
C375        H388   1.083       .  S
C376        C377   1.411       .  A
C376        C379   1.493       .  S
C377        C378   1.403       .  A
C377        H389   1.081       .  S
C378        H390   1.083       .  S
C379        C380   1.349       .  D
C379        H391   1.085   1_655  S
C380        C381   1.492       .  S
C380        H392   1.085       .  S
C381        C382   1.403       .  A
C381        C386   1.409       .  A
C382        C383   1.399       .  A
C382        H393   1.083       .  S
C383        C384   1.408       .  A
C383        H394   1.083       .  S
C384        C385   1.407       .  A
C385        C386   1.402       .  A
C385        H395   1.083   1_655  S
C386        H396   1.082       .  S
C397        C398   1.406       .  A
C397        C402   1.406   1_655  A
C398        C399   1.395       .  A
C398        H411   1.083       .  S
C399        C400   1.402       .  A
C399        H412   1.083       .  S
C400        C401   1.409   1_655  A
C400        C403   1.486       .  S
C401        C402   1.402       .  A
C401        H413   1.082       .  S
C402        H414   1.083       .  S
C403        C404   1.347   1_655  D
C403        H415   1.084       .  S
C404        C405   1.490       .  S
C404        H416   1.085       .  S
C405        C406   1.405       .  A
C405        C410   1.410   1_455  A
C406        C407   1.399       .  A
C406        H417   1.083       .  S
C407        C408   1.403       .  A
C407        H418   1.083       .  S
C408        C409   1.401   1_455  A
C409        C410   1.398       .  A
C409        H419   1.083       .  S
C410        H420   1.080       .  S
C421        C422   1.401   1_455  A
C421        C426   1.401       .  A
C422        C423   1.396       .  A
C422        H435   1.083       .  S
C423        C424   1.402       .  A
C423        H436   1.083       .  S
C424        C425   1.408   1_655  A
C424        C427   1.478       .  S
C425        C426   1.398       .  A
C425        H437   1.083       .  S
C426        H438   1.083       .  S
C427        C428   1.343   1_655  D
C427        H439   1.086       .  S
C428        C429   1.482       .  S
C428        H440   1.087       .  S
C429        C430   1.402       .  A
C429        C434   1.408   1_455  A
C430        C431   1.395       .  A
C430        H441   1.083       .  S
C431        C432   1.405       .  A
C431        H442   1.083       .  S
C432        C433   1.404   1_455  A
C433        C434   1.398       .  A
C433        H443   1.083       .  S
C434        H444   1.082       .  S
