geometry optimzed in LAMMPS
_audit_creation_date              2020-11-30 
_audit_creation_method            'lammps2cif' 
_symmetry_space_group_name_H-M    'P1' 
_symmetry_Int_Tables_number       1 
_symmetry_cell_setting            triclinic 
loop_ 
_symmetry_equiv_pos_as_xyz 
  x,y,z 
_cell_length_a                    42.10572603 
_cell_length_b                    41.84156258235821 
_cell_length_c                    41.98369782224367 
_cell_angle_alpha                 90.03641152509205 
_cell_angle_beta                  89.8781423006023 
_cell_angle_gamma                 90.40828629926223 
loop_ 
_atom_site_label 
_atom_site_type_symbol 
_atom_site_fract_x 
_atom_site_fract_y 
_atom_site_fract_z 
_atom_site_charge 
Fe1        Fe  0.81929692  0.87338328  0.62554638     1.65800
Fe2        Fe  0.87555096  0.87268362  0.68431349     1.73200
Fe3        Fe  0.87642974  0.81593615  0.62554933     1.54400
O4          O  0.83368507  0.79191273  0.62363110    -0.81900
O5          O  0.92223380  0.86786829  0.66849820    -0.80200
O6          O  0.79762745  0.82952471  0.61672057    -0.84400
O7          O  0.83880215  0.87416969  0.58064907    -0.79200
O8          O  0.88389699  0.79351111  0.66869015    -0.81000
O9          O  0.87557095  0.91831769  0.66611093    -0.83700
C10         C  0.85634436  0.85486048  0.56550802     0.97000
C11         C  0.80534368  0.80024060  0.61846047     1.04500
O12         O  0.85725991  0.85413649  0.64505181    -1.12700
O13         O  0.83129900  0.87889841  0.70597051    -0.75200
O14         O  0.79501326  0.87431775  0.66793789    -0.78600
O15         O  0.87098392  0.83225498  0.57914191    -0.79300
C16         C  0.80247900  0.87699786  0.69697808     0.95900
O17         O  0.83527009  0.91995170  0.63208845    -0.77300
O18         O  0.87759783  0.82943856  0.70726020    -0.82500
C19         C  0.93619146  0.85319161  0.64597031     0.98500
C20         C  0.88228557  0.80112973  0.69788163     1.04500
O21         O  0.92145797  0.83544519  0.62628781    -0.78100
C22         C  0.85711698  0.93365064  0.64800739     1.02800
Fe23       Fe  0.63357808  0.81352296  0.86662606     1.65800
Fe24       Fe  0.68756641  0.87527200  0.86634005     1.73200
Fe25       Fe  0.63118933  0.86972892  0.80758956     1.54400
O26         O  0.62961250  0.82595878  0.78537695    -0.81900
O27         O  0.66780402  0.92045497  0.86118315    -0.80200
O28         O  0.62922161  0.78940752  0.82388188    -0.84400
O29         O  0.58722080  0.82907405  0.86443426    -0.79200
O30         O  0.67487313  0.87675428  0.78544491    -0.81000
O31         O  0.66939579  0.87314058  0.91212065    -0.83700
C32         C  0.57181305  0.84746627  0.84618901     0.97000
C33         C  0.62885620  0.79725453  0.79475936     1.04500
O34         O  0.65065518  0.85294065  0.84696479    -1.12700
O35         O  0.71258983  0.83334977  0.87308762    -0.75200
O36         O  0.67773345  0.79319483  0.87063517    -0.78600
O37         O  0.58506378  0.86416273  0.82455649    -0.79300
C38         C  0.70586388  0.80371757  0.87339475     0.95900
O39         O  0.63643325  0.83154735  0.91227915    -0.77300
O40         O  0.71121819  0.87920460  0.82359636    -0.82500
C41         C  0.64641004  0.93254326  0.84360800     0.98500
C42         C  0.70361034  0.87924783  0.79447790     1.04500
O43         O  0.63043053  0.91579167  0.82428442    -0.78100
C44         C  0.65123365  0.85378170  0.92672564     1.02800
Fe45       Fe  0.87061090  0.63112043  0.81018844     1.65800
Fe46       Fe  0.87657826  0.69050602  0.86605653     1.73200
Fe47       Fe  0.81521654  0.63614602  0.86977579     1.54400
O48         O  0.79096155  0.63049900  0.82723289    -0.81900
O49         O  0.87507155  0.67376452  0.91248288    -0.80200
O50         O  0.82694476  0.63004189  0.78851431    -0.84400
O51         O  0.86389260  0.58596696  0.82818765    -0.79200
O52         O  0.79515870  0.68085793  0.87248479    -0.81000
O53         O  0.92138684  0.67061982  0.86084618    -0.83700
C54         C  0.84776808  0.57313411  0.85033709     0.97000
C55         C  0.79836260  0.62975125  0.79796107     1.04500
O56         O  0.85427969  0.65245159  0.84886503    -1.12700
O57         O  0.87995256  0.71234370  0.82208560    -0.75200
O58         O  0.87866037  0.67319133  0.78634302    -0.78600
O59         O  0.83026712  0.58922110  0.86892640    -0.79300
C60         C  0.88022580  0.70248493  0.79352554     0.95900
O61         O  0.91661867  0.63015781  0.82668772    -0.77300
O62         O  0.83504660  0.71597636  0.87238424    -0.82500
C63         C  0.85623128  0.65596837  0.92828727     0.98500
C64         C  0.80562595  0.70934460  0.87314938     1.04500
O65         O  0.83369487  0.64035871  0.91535783    -0.78100
C66         C  0.93329248  0.64807355  0.84446097     1.02800
Fe67       Fe  0.69090346  0.63147718  0.62572172     1.65800
Fe68       Fe  0.63285472  0.62952302  0.68238202     1.73200
Fe69       Fe  0.63267611  0.68723007  0.62474596     1.54400
O70         O  0.67481392  0.71228160  0.62362319    -0.81900
O71         O  0.58647759  0.63508037  0.66647207    -0.80200
O72         O  0.71159984  0.67563107  0.61634889    -0.84400
O73         O  0.67140911  0.62913923  0.58093484    -0.79200
O74         O  0.62417151  0.70899568  0.66831235    -0.81000
O75         O  0.63282433  0.58432053  0.66278287    -0.83700
C76         C  0.65410476  0.64808279  0.56523798     0.97000
C77         C  0.70335972  0.70470913  0.61847705     1.04500
O78         O  0.65202097  0.64932121  0.64420222    -1.12700
O79         O  0.67618156  0.62198597  0.70428250    -0.75200
O80         O  0.71412164  0.63244056  0.66872009    -0.78600
O81         O  0.63929193  0.67099449  0.57837968    -0.79300
C82         C  0.70512818  0.62643640  0.69689612     0.95900
O83         O  0.67624997  0.58477135  0.63269310    -0.77300
O84         O  0.63195204  0.67236682  0.70604648    -0.82500
C85         C  0.57293534  0.64909608  0.64335013     0.98500
C86         C  0.62721754  0.70085576  0.69726397     1.04500
O87         O  0.58836657  0.66654817  0.62413868    -0.78100
C88         C  0.65324452  0.57001614  0.64586892     1.02800
Fe89       Fe  0.87206548  0.13336310  0.67928863     1.65800
Fe90       Fe  0.81459672  0.13098139  0.62232762     1.73200
Fe91       Fe  0.87107690  0.19016473  0.62082908     1.54400
O92         O  0.87900057  0.21283093  0.66395317    -0.81900
O93         O  0.83360773  0.13068876  0.57728494    -0.80200
O94         O  0.87292601  0.17662327  0.70211408    -0.84400
O95         O  0.91810513  0.14014057  0.66300063    -0.79200
O96         O  0.82773063  0.21310530  0.61937395    -0.81000
O97         O  0.83140269  0.08502506  0.62837228    -0.83700
C98         C  0.93194802  0.15454522  0.64014007     0.97000
C99         C  0.87709126  0.20525247  0.69311236     1.04500
O100        O  0.85266319  0.15145194  0.64071207    -1.12700
O101        O  0.79112886  0.12932659  0.66520008    -0.75200
O102        O  0.82873398  0.12491711  0.70158078    -0.78600
O103        O  0.91660000  0.17152224  0.62049262    -0.79300
C104        C  0.79964059  0.12577043  0.69390697     0.95900
O105        O  0.87304039  0.08783306  0.66072642    -0.77300
O106        O  0.79196272  0.17395695  0.61436661    -0.82500
C107        C  0.85025911  0.15046702  0.56158702     0.98500
C108        C  0.79938180  0.20338432  0.61547594     1.04500
O109        O  0.86489546  0.17360159  0.57474328    -0.78100
C110        C  0.85426689  0.07204834  0.64296894     1.02800
Fe111      Fe  0.87089677  0.37470464  0.80630060     1.65800
Fe112      Fe  0.81482012  0.37445109  0.86501281     1.73200
Fe113      Fe  0.87186597  0.31692983  0.86415899     1.54400
O114        O  0.87261291  0.29358300  0.82136560    -0.81900
O115        O  0.83218136  0.36910193  0.91073512    -0.80200
O116        O  0.87692439  0.33085802  0.78398732    -0.84400
O117        O  0.91633836  0.37433589  0.82392342    -0.79200
O118        O  0.82844814  0.29464453  0.87258418    -0.81000
O119        O  0.83354932  0.41969406  0.86452119    -0.83700
C120        C  0.93150313  0.35539833  0.84169651     0.97000
C121        C  0.87506612  0.30175937  0.79250720     1.04500
O122        O  0.85273008  0.35553153  0.84528791    -1.12700
O123        O  0.79168275  0.38167414  0.82211160    -0.75200
O124        O  0.82785300  0.37669356  0.78392703    -0.78600
O125        O  0.91794323  0.33330310  0.85755543    -0.79300
C126        C  0.79939154  0.38015201  0.79295685     0.95900
O127        O  0.86621037  0.42124788  0.82286401    -0.77300
O128        O  0.79161369  0.33154281  0.86715652    -0.82500
C129        C  0.85436222  0.35403661  0.92455682     0.98500
C130        C  0.79946945  0.30282555  0.87121843     1.04500
O131        O  0.87279603  0.33557858  0.90954251    -0.78100
C132        C  0.85146209  0.43489996  0.84546054     1.02800
Fe133      Fe  0.62709600  0.13241568  0.80709115     1.65800
Fe134      Fe  0.68649301  0.13009708  0.86255875     1.73200
Fe135      Fe  0.63088153  0.18922278  0.86583825     1.54400
O136        O  0.62753835  0.21337642  0.82312276    -0.81900
O137        O  0.67048883  0.13278677  0.90908421    -0.80200
O138        O  0.62356230  0.17645745  0.78518922    -0.84400
O139        O  0.58199296  0.13592385  0.82610461    -0.79200
O140        O  0.67482150  0.21033471  0.87135489    -0.81000
O141        O  0.66736576  0.08467439  0.85983514    -0.83700
C142        C  0.56893243  0.15322483  0.84707146     0.97000
C143        C  0.62518023  0.20542847  0.79408264     1.04500
O144        O  0.64802371  0.15046125  0.84529596    -1.12700
O145        O  0.70772625  0.12579505  0.81840661    -0.75200
O146        O  0.66929732  0.12692289  0.78261159    -0.78600
O147        O  0.58441371  0.17366328  0.86321805    -0.79300
C148        C  0.69845112  0.12538306  0.78966466     0.95900
O149        O  0.62855862  0.08608718  0.82411536    -0.77300
O150        O  0.71096813  0.17256217  0.86706384    -0.82500
C151        C  0.65027315  0.14929816  0.92433623     0.98500
C152        C  0.70357472  0.20152871  0.87077943     1.04500
O153        O  0.63298537  0.17001048  0.91098837    -0.78100
C154        C  0.64557184  0.07103946  0.84398775     1.02800
Fe155      Fe  0.63261735  0.37250259  0.68032126     1.65800
Fe156      Fe  0.68905154  0.36978305  0.62190411     1.73200
Fe157      Fe  0.62784041  0.31563772  0.62183960     1.54400
O158        O  0.62563478  0.29120054  0.66441381    -0.81900
O159        O  0.67261752  0.36488727  0.57596343    -0.80200
O160        O  0.62346191  0.32899158  0.70169262    -0.84400
O161        O  0.58732826  0.37503833  0.66247295    -0.79200
O162        O  0.67001655  0.29130146  0.61295501    -0.81000
O163        O  0.67239264  0.41593145  0.62212970    -0.83700
C164        C  0.57056133  0.35682310  0.64517178     0.97000
C165        C  0.62327199  0.29985852  0.69324257     1.04500
O166        O  0.64974240  0.35270032  0.64129928    -1.12700
O167        O  0.71170750  0.37652762  0.66495025    -0.75200
O168        O  0.67559874  0.37211093  0.70336517    -0.78600
O169        O  0.58246955  0.33407181  0.62904176    -0.79300
C170        C  0.70409116  0.37500301  0.69409908     0.95900
O171        O  0.64038124  0.41863419  0.66435894    -0.77300
O172        O  0.71003384  0.32565268  0.62000382    -0.82500
C173        C  0.64880819  0.35265320  0.56206765     0.98500
C174        C  0.69950620  0.29760754  0.61536266     1.04500
O175        O  0.62820837  0.33601847  0.57695527    -0.78100
C176        C  0.65570884  0.43169733  0.64170526     1.02800
Fe177      Fe  0.13584809  0.81340417  0.62656997     1.65800
Fe178      Fe  0.13226863  0.87001615  0.68502268     1.73200
Fe179      Fe  0.19091783  0.87405328  0.62832385     1.54400
O180        O  0.21480462  0.83182470  0.62069007    -0.81900
O181        O  0.13217556  0.91577630  0.66778894    -0.80200
O182        O  0.18001684  0.79182511  0.62454623    -0.84400
O183        O  0.14102650  0.83110243  0.58125501    -0.79200
O184        O  0.21345976  0.87624744  0.67197354    -0.81000
O185        O  0.08678006  0.86434729  0.66753840    -0.83700
C186        C  0.15580487  0.85361005  0.56740113     0.97000
C187        C  0.20829772  0.80225412  0.62176494     1.04500
O188        O  0.15288248  0.85260796  0.64650232    -1.12700
O189        O  0.12994779  0.82647669  0.70739957    -0.75200
O190        O  0.12882551  0.78998898  0.66902868    -0.78600
O191        O  0.17317342  0.87358362  0.58226112    -0.79300
C192        C  0.12785479  0.79779135  0.69815047     0.95900
O193        O  0.08958453  0.83012528  0.62699498    -0.77300
O194        O  0.17492266  0.87741939  0.70801004    -0.82500
C195        C  0.15063481  0.93200633  0.65025758     0.98500
C196        C  0.20410841  0.87767612  0.70071567     1.04500
O197        O  0.17297299  0.91952964  0.63426972    -0.78100
C198        C  0.07383301  0.84816934  0.64547199     1.02800
Fe199      Fe  0.37325916  0.81375746  0.86914275     1.65800
Fe200      Fe  0.37480316  0.87280135  0.81295369     1.73200
Fe201      Fe  0.31601088  0.87066047  0.86925378     1.54400
O202        O  0.29258964  0.82743618  0.86889430    -0.81900
O203        O  0.36811735  0.91914922  0.82974313    -0.80200
O204        O  0.32995313  0.79155553  0.87809035    -0.84400
O205        O  0.37438549  0.83310400  0.91414879    -0.79200
O206        O  0.29524443  0.87915797  0.82559396    -0.81000
O207        O  0.41973592  0.87317365  0.83281656    -0.83700
C208        C  0.35448694  0.85009154  0.92922720     0.97000
C209        C  0.30108109  0.79903368  0.87451112     1.04500
O210        O  0.35488078  0.85266686  0.85061427    -1.12700
O211        O  0.38317604  0.82933536  0.79053705    -0.75200
O212        O  0.37295785  0.79098495  0.82601418    -0.78600
O213        O  0.33136115  0.86373618  0.91559074    -0.79300
C214        C  0.37842525  0.80020221  0.79782021     0.95900
O215        O  0.41960328  0.82904707  0.86227062    -0.77300
O216        O  0.33244373  0.87392593  0.78845194    -0.82500
C217        C  0.35213491  0.93213918  0.85195280     0.98500
C218        C  0.30376028  0.87784221  0.79659998     1.04500
O219        O  0.33453666  0.91629008  0.87081654    -0.78100
C220        C  0.43413302  0.85220200  0.84899458     1.02800
Fe221      Fe  0.12970587  0.68714350  0.86576700     1.65800
Fe222      Fe  0.13296120  0.62663070  0.81111508     1.73200
Fe223      Fe  0.18749718  0.63010031  0.87172731     1.54400
O224        O  0.20980952  0.67409737  0.87542982    -0.81900
O225        O  0.13633566  0.58157393  0.83020257    -0.80200
O226        O  0.17236671  0.71098464  0.87083720    -0.84400
O227        O  0.13037400  0.67193522  0.91249236    -0.79200
O228        O  0.21250493  0.62404433  0.82983587    -0.81000
O229        O  0.08624639  0.62861894  0.82691055    -0.83700
C230        C  0.14676634  0.65268420  0.92884021     0.97000
C231        C  0.20117055  0.70301385  0.87366082     1.04500
O232        O  0.14989493  0.64778882  0.84970235    -1.12700
O233        O  0.12808687  0.66843927  0.78606428    -0.75200
O234        O  0.12702515  0.70783157  0.82136583    -0.78600
O235        O  0.16770208  0.63482459  0.91647121    -0.79300
C236        C  0.12697955  0.69781175  0.79287946     0.95900
O237        O  0.08433915  0.66863743  0.86183693    -0.77300
O238        O  0.17744853  0.62307766  0.79041872    -0.82500
C239        C  0.15213976  0.56818123  0.85206728     0.98500
C240        C  0.20590176  0.62292876  0.80043681     1.04500
O241        O  0.17080396  0.58342126  0.87035541    -0.78100
C242        C  0.07096268  0.64663509  0.84587782     1.02800
Fe243      Fe  0.37649591  0.68795139  0.62752423     1.65800
Fe244      Fe  0.37430311  0.63231725  0.68686464     1.73200
Fe245      Fe  0.31711058  0.63173084  0.62930648     1.54400
O246        O  0.29672434  0.67577902  0.62086069    -0.81900
O247        O  0.37387291  0.58681303  0.66863574    -0.80200
O248        O  0.33448331  0.71298924  0.62534626    -0.84400
O249        O  0.36986949  0.67109195  0.58177319    -0.79200
O250        O  0.29332064  0.63102238  0.67225994    -0.81000
O251        O  0.42070219  0.63693105  0.67121748    -0.83700
C252        C  0.35424134  0.64882258  0.56848997     0.97000
C253        C  0.30565170  0.70480141  0.62129144     1.04500
O254        O  0.35595150  0.65060850  0.64781853    -1.12700
O255        O  0.37586574  0.67593298  0.70900556    -0.75200
O256        O  0.38551930  0.71106281  0.67031616    -0.78600
O257        O  0.33577161  0.63038208  0.58393257    -0.79300
C258        C  0.38183988  0.70405928  0.69947882     0.95900
O259        O  0.42052140  0.66657475  0.62753913    -0.77300
O260        O  0.33083859  0.62505142  0.70877896    -0.82500
C261        C  0.35443831  0.57163940  0.65117183     0.98500
C262        C  0.30184752  0.62644248  0.70077851     1.04500
O263        O  0.33229940  0.58522385  0.63586770    -0.78100
C264        C  0.43493237  0.64908668  0.64749979     1.02800
Fe265      Fe  0.13128669  0.18699308  0.62760518     1.65800
Fe266      Fe  0.18927593  0.13021583  0.62941935     1.73200
Fe267      Fe  0.13043134  0.12949572  0.68535803     1.54400
O268        O  0.13032501  0.17238735  0.70890491    -0.81900
O269        O  0.17305868  0.08375621  0.63490898    -0.80200
O270        O  0.12232188  0.20882886  0.67107305    -0.84400
O271        O  0.08626636  0.16717788  0.62629316    -0.79200
O272        O  0.17321731  0.12014577  0.70818630    -0.81000
O273        O  0.17161196  0.12981095  0.58354001    -0.83700
C274        C  0.07070934  0.15019990  0.64604208     0.97000
C275        C  0.12571683  0.20088812  0.70005358     1.04500
O276        O  0.15023395  0.14877920  0.64728218    -1.12700
O277        O  0.21101816  0.17404117  0.62233183    -0.75200
O278        O  0.17395839  0.21135130  0.62711339    -0.78600
O279        O  0.08431796  0.13648221  0.66920469    -0.79300
C280        C  0.20262943  0.20307629  0.62362969     0.95900
O281        O  0.13844471  0.17093837  0.58135053    -0.77300
O282        O  0.21174020  0.12929663  0.67301030    -0.82500
C283        C  0.14966005  0.06988205  0.64823118     0.98500
C284        C  0.20237093  0.12341466  0.70111405     1.04500
O285        O  0.12960647  0.08464744  0.66532187    -0.78100
C286        C  0.15422484  0.14886721  0.56795952     1.02800
Fe287      Fe  0.37194146  0.37378321  0.68421797     1.65800
Fe288      Fe  0.37393978  0.31592526  0.62683677     1.73200
Fe289      Fe  0.31516428  0.37243887  0.62566126     1.54400
O290        O  0.29184620  0.37742988  0.66877319    -0.81900
O291        O  0.37131512  0.33322010  0.58088323    -0.80200
O292        O  0.32848569  0.37718910  0.70676780    -0.84400
O293        O  0.36822775  0.41925535  0.66657833    -0.79200
O294        O  0.29299665  0.32831360  0.62234503    -0.81000
O295        O  0.41937354  0.33482069  0.62965921    -0.83700
C296        C  0.35183611  0.43356968  0.64574422     0.97000
C297        C  0.29979248  0.37829035  0.69789504     1.04500
O298        O  0.35380463  0.35423420  0.64539737    -1.12700
O299        O  0.37837353  0.29300750  0.67022538    -0.75200
O300        O  0.37696663  0.33081389  0.70726412    -0.78600
O301        O  0.33222008  0.41905803  0.62779603    -0.79300
C302        C  0.37808810  0.30174355  0.69915017     0.95900
O303        O  0.41800358  0.37250267  0.66700625    -0.77300
O304        O  0.33124444  0.29198362  0.62242672    -0.82500
C305        C  0.35358909  0.35221092  0.56567115     0.98500
C306        C  0.30216505  0.29947493  0.62217172     1.04500
O307        O  0.33260054  0.36903331  0.57942896    -0.78100
C308        C  0.43294022  0.35607769  0.64645878     1.02800
Fe309      Fe  0.31507761  0.13078294  0.87009869     1.65800
Fe310      Fe  0.37263170  0.13057101  0.81226838     1.73200
Fe311      Fe  0.37037775  0.19056229  0.86782121     1.54400
O312        O  0.32709814  0.21258652  0.86884036    -0.81900
O313        O  0.41857978  0.13710760  0.82951164    -0.80200
O314        O  0.29244169  0.17367331  0.87832194    -0.84400
O315        O  0.33541060  0.13194051  0.91473879    -0.79200
O316        O  0.37717538  0.21136353  0.82377490    -0.81000
O317        O  0.37251405  0.08505135  0.83184965    -0.83700
C318        C  0.35247726  0.15255460  0.92911307     0.97000
C319        C  0.29930354  0.20308135  0.87535345     1.04500
O320        O  0.35281427  0.15055046  0.85005392    -1.12700
O321        O  0.32878268  0.12311114  0.79014647    -0.75200
O322        O  0.29100668  0.12819033  0.82728343    -0.78600
O323        O  0.36546464  0.17583599  0.91466035    -0.79300
C324        C  0.29972919  0.12480527  0.79851359     0.95900
O325        O  0.33135420  0.08475982  0.86500677    -0.77300
O326        O  0.37542641  0.17293542  0.78730050    -0.82500
C327        C  0.43152658  0.15449173  0.85085856     0.98500
C328        C  0.37762798  0.20210706  0.79501697     1.04500
O329        O  0.41576831  0.17328066  0.86832649    -0.78100
C330        C  0.35357565  0.07054010  0.85047477     1.02800
Fe331      Fe  0.12875896  0.37042165  0.81045930     1.65800
Fe332      Fe  0.12729029  0.31326116  0.86819316     1.73200
Fe333      Fe  0.18724322  0.36838251  0.86629036     1.54400
O334        O  0.20816920  0.37694573  0.82214184    -0.81900
O335        O  0.12730439  0.33357328  0.91299103    -0.80200
O336        O  0.17088436  0.36945553  0.78556287    -0.84400
O337        O  0.13774318  0.41620451  0.82620520    -0.79200
O338        O  0.20863019  0.32438821  0.86550078    -0.81000
O339        O  0.08149180  0.32974344  0.86133658    -0.83700
C340        C  0.15311563  0.42995248  0.84830199     0.97000
C341        C  0.19963161  0.37376856  0.79328654     1.04500
O342        O  0.14759094  0.35090959  0.84850050    -1.12700
O343        O  0.12658440  0.28931774  0.82531815    -0.75200
O344        O  0.11795714  0.32720203  0.78913931    -0.78600
O345        O  0.16986911  0.41468799  0.86826578    -0.79300
C346        C  0.12116791  0.29816786  0.79696007     0.95900
O347        O  0.08443086  0.37308132  0.83084612    -0.77300
O348        O  0.16969521  0.29058056  0.87778487    -0.82500
C349        C  0.14956569  0.34778259  0.92774589     0.98500
C350        C  0.19884274  0.29669011  0.87319891     1.04500
O351        O  0.17280121  0.36076213  0.91304256    -0.78100
C352        C  0.06867851  0.35336793  0.84764370     1.02800
Fe353      Fe  0.81523437  0.87420299  0.36593440     1.65800
Fe354      Fe  0.87186283  0.81635715  0.36843458     1.73200
Fe355      Fe  0.87365986  0.87225537  0.30904512     1.54400
O356        O  0.83075810  0.88077736  0.28619494    -0.81900
O357        O  0.91705988  0.83545236  0.36831463    -0.80200
O358        O  0.79256567  0.87534571  0.32249892    -0.84400
O359        O  0.83307096  0.92015256  0.36014338    -0.79200
O360        O  0.87382245  0.82881282  0.28649675    -0.81000
O361        O  0.86632093  0.83372737  0.41428929    -0.83700
C362        C  0.85641172  0.93304084  0.34572113     0.97000
C363        C  0.80165794  0.87906165  0.29395469     1.04500
O364        O  0.85363577  0.85437083  0.34791302    -1.12700
O365        O  0.82886897  0.79299531  0.37062556    -0.75200
O366        O  0.79234072  0.83090155  0.37334978    -0.78600
O367        O  0.87495766  0.91748863  0.32771312    -0.79300
C368        C  0.80027093  0.80166784  0.37321035     0.95900
O369        O  0.83280312  0.87449510  0.41186667    -0.77300
O370        O  0.87885272  0.79302833  0.32551209    -0.82500
C371        C  0.93296439  0.85203646  0.34866918     0.98500
C372        C  0.87673488  0.80039394  0.29628780     1.04500
O373        O  0.91985129  0.86595558  0.32527079    -0.78100
C374        C  0.85060052  0.85588970  0.42749873     1.02800
Fe375      Fe  0.81802578  0.62950475  0.12567938     1.65800
Fe376      Fe  0.87526672  0.68741943  0.12815998     1.73200
Fe377      Fe  0.87225934  0.63120447  0.18620126     1.54400
O378        O  0.82794839  0.62215013  0.20565257    -0.81900
O379        O  0.91953480  0.66693984  0.12809024    -0.80200
O380        O  0.79204806  0.62851559  0.16752613    -0.84400
O381        O  0.83420508  0.58324689  0.13310438    -0.79200
O382        O  0.87056290  0.67433190  0.20930171    -0.81000
O383        O  0.86927293  0.67261064  0.08154360    -0.83700
C384        C  0.85635380  0.57035024  0.14909535     0.97000
C385        C  0.79934488  0.62429196  0.19647273     1.04500
O386        O  0.85529994  0.64910889  0.14649945    -1.12700
O387        O  0.83273091  0.71094649  0.12751689    -0.75200
O388        O  0.79701891  0.67332621  0.11646025    -0.78600
O389        O  0.87473071  0.58614271  0.16716563    -0.79300
C390        C  0.80463376  0.70252848  0.12070620     0.95900
O391        O  0.83904650  0.62897381  0.08095100    -0.77300
O392        O  0.88384876  0.70918430  0.17160315    -0.82500
C393        C  0.93387718  0.65118197  0.14948838     0.98500
C394        C  0.87807477  0.70225251  0.20040323     1.04500
O395        O  0.91932263  0.63862346  0.17292495    -0.78100
C396        C  0.85592899  0.64975644  0.06668678     1.02800
Fe397      Fe  0.68985661  0.86925397  0.12491367     1.65800
Fe398      Fe  0.63147114  0.81206924  0.12585162     1.73200
Fe399      Fe  0.63218217  0.87068422  0.18215029     1.54400
O400        O  0.67488040  0.87120271  0.20608194    -0.81900
O401        O  0.58550347  0.82801852  0.13206601    -0.80200
O402        O  0.71178124  0.87771607  0.16851635    -0.84400
O403        O  0.67179958  0.91512868  0.12357429    -0.79200
O404        O  0.62280490  0.82777667  0.20475640    -0.81000
O405        O  0.63085803  0.83114729  0.08068927    -0.83700
C406        C  0.65385241  0.93025896  0.14251873     0.97000
C407        C  0.70353227  0.87505378  0.19752697     1.04500
O408        O  0.65105450  0.85082048  0.14415701    -1.12700
O409        O  0.67427204  0.78975443  0.11725880    -0.75200
O410        O  0.71230471  0.82569224  0.12474927    -0.78600
O411        O  0.63923055  0.91643175  0.16520405    -0.79300
C412        C  0.70334156  0.79704879  0.12004078     0.95900
O413        O  0.67375062  0.86252189  0.07856921    -0.77300
O414        O  0.63079353  0.78916590  0.16924832    -0.82500
C415        C  0.57219674  0.85152696  0.14549725     0.98500
C416        C  0.62558349  0.79854188  0.19750730     1.04500
O417        O  0.58744579  0.87152550  0.16244201    -0.78100
C418        C  0.65067786  0.84802535  0.06520414     1.02800
Fe419      Fe  0.68751240  0.63241302  0.36719895     1.65800
Fe420      Fe  0.62879387  0.68799544  0.36721316     1.73200
Fe421      Fe  0.62964205  0.62910092  0.31049677     1.54400
O422        O  0.67378506  0.62226786  0.28829000    -0.81900
O423        O  0.58402503  0.66827530  0.36759676    -0.80200
O424        O  0.71067406  0.63272467  0.32446546    -0.84400
O425        O  0.67390336  0.58530362  0.36060727    -0.79200
O426        O  0.62803597  0.67169506  0.28642122    -0.81000
O427        O  0.63475053  0.67196432  0.41369208    -0.83700
C428        C  0.65170267  0.57000499  0.34680545     0.97000
C429        C  0.70268814  0.62721981  0.29602341     1.04500
O430        O  0.64837128  0.64960550  0.34848724    -1.12700
O431        O  0.67080239  0.71298907  0.36835826    -0.75200
O432        O  0.70814661  0.67684855  0.37529515    -0.78600
O433        O  0.63062579  0.58377092  0.33024189    -0.79300
C434        C  0.69953612  0.70571184  0.37237221     0.95900
O435        O  0.66807130  0.63090645  0.41211852    -0.77300
O436        O  0.62134223  0.70933907  0.32329368    -0.82500
C437        C  0.56879212  0.65000877  0.34887828     0.98500
C438        C  0.62452648  0.70059595  0.29448651     1.04500
O439        O  0.58261623  0.63447171  0.32672605    -0.78100
C440        C  0.64967443  0.64946601  0.42726224     1.02800
Fe441      Fe  0.63128921  0.12899853  0.17880968     1.65800
Fe442      Fe  0.63292607  0.18745047  0.12218221     1.73200
Fe443      Fe  0.68977688  0.12971740  0.12260803     1.54400
O444        O  0.71260031  0.12875914  0.16554491    -0.81900
O445        O  0.63995960  0.17204371  0.07553265    -0.80200
O446        O  0.67465082  0.11937816  0.20095483    -0.84400
O447        O  0.63008590  0.08435218  0.15846246    -0.79200
O448        O  0.71209719  0.17375512  0.11528155    -0.81000
O449        O  0.58794443  0.16810296  0.12032470    -0.83700
C450        C  0.65063603  0.06902537  0.14266782     0.97000
C451        C  0.70391686  0.12213623  0.19358222     1.04500
O452        O  0.65116543  0.14857764  0.14103965    -1.12700
O453        O  0.62416554  0.20874606  0.16612544    -0.75200
O454        O  0.63098569  0.17149536  0.20305141    -0.78600
O455        O  0.67388154  0.08274352  0.12870326    -0.79300
C456        C  0.62701095  0.20033080  0.19507921     0.95900
O457        O  0.58506476  0.13637933  0.16271012    -0.77300
O458        O  0.67573116  0.21118832  0.12276969    -0.82500
C459        C  0.65443167  0.14906997  0.06211626     0.98500
C460        C  0.70430602  0.20282283  0.11909191     1.04500
O461        O  0.67102581  0.12921438  0.07747159    -0.78100
C462        C  0.57204792  0.15133676  0.13984643     1.02800
Fe463      Fe  0.63513580  0.37347743  0.30643566     1.65800
Fe464      Fe  0.63324343  0.31389966  0.36197260     1.73200
Fe465      Fe  0.69219218  0.37044908  0.36489189     1.54400
O466        O  0.71599000  0.37424431  0.32195751    -0.81900
O467        O  0.63657345  0.32976638  0.40805453    -0.80200
O468        O  0.67869388  0.37763241  0.28485524    -0.84400
O469        O  0.63957832  0.41890600  0.32515146    -0.79200
O470        O  0.71312421  0.32674179  0.36979486    -0.81000
O471        O  0.58826223  0.33339238  0.36019287    -0.83700
C472        C  0.65825654  0.43223988  0.34487883     0.97000
C473        C  0.70755516  0.37667964  0.29303689     1.04500
O474        O  0.65341707  0.35278871  0.34451175    -1.12700
O475        O  0.62768231  0.29267173  0.31836086    -0.75200
O476        O  0.62924072  0.33088794  0.28175956    -0.78600
O477        O  0.67776871  0.41695574  0.36175599    -0.79300
C478        C  0.62710625  0.30170660  0.28962284     0.95900
O479        O  0.58900264  0.37146977  0.32342788    -0.77300
O480        O  0.67570837  0.28940575  0.36500510    -0.82500
C481        C  0.65217819  0.35029273  0.42372860     0.98500
C482        C  0.70457837  0.29784887  0.36762694     1.04500
O483        O  0.67288716  0.36819934  0.41046042    -0.78100
C484        C  0.57425795  0.35462094  0.34381122     1.02800
Fe485      Fe  0.81799750  0.12840634  0.36456959     1.65800
Fe486      Fe  0.87319305  0.13166531  0.30532937     1.73200
Fe487      Fe  0.87310362  0.18833593  0.36325253     1.54400
O488        O  0.82977598  0.21042623  0.36259781    -0.81900
O489        O  0.91977900  0.14043332  0.32013091    -0.80200
O490        O  0.79538956  0.17134327  0.37365276    -0.84400
O491        O  0.83884535  0.12815040  0.40885718    -0.79200
O492        O  0.88288626  0.20983817  0.31996037    -0.81000
O493        O  0.87678287  0.08690351  0.32453785    -0.83700
C494        C  0.85414070  0.14970182  0.42369647     0.97000
C495        C  0.80185577  0.20065171  0.36899255     1.04500
O496        O  0.85485887  0.14930779  0.34447704    -1.12700
O497        O  0.82908291  0.12100223  0.28501651    -0.75200
O498        O  0.79285044  0.12677174  0.32273320    -0.78600
O499        O  0.86600506  0.17376733  0.40970270    -0.79300
C500        C  0.80014603  0.12219084  0.29389573     0.95900
O501        O  0.83532699  0.08272094  0.35722753    -0.77300
O502        O  0.87115290  0.17458001  0.28211824    -0.82500
C503        C  0.93318032  0.15332342  0.34412889     0.98500
C504        C  0.87844140  0.20256124  0.29102798     1.04500
O505        O  0.91786145  0.16914086  0.36484381    -0.78100
C506        C  0.85838519  0.07050401  0.34199788     1.02800
Fe507      Fe  0.87637548  0.31477546  0.12149778     1.65800
Fe508      Fe  0.81936581  0.37226335  0.12556716     1.73200
Fe509      Fe  0.87903589  0.37132343  0.18079775     1.54400
O510        O  0.88452316  0.32747761  0.20231326    -0.81900
O511        O  0.83800254  0.41805553  0.12660815    -0.80200
O512        O  0.87977668  0.29073764  0.16411222    -0.84400
O513        O  0.92267478  0.33119986  0.12478522    -0.79200
O514        O  0.83708625  0.37478360  0.20591063    -0.81000
O515        O  0.83400537  0.36844415  0.07901596    -0.83700
C516        C  0.93765976  0.35192963  0.14111724     0.97000
C517        C  0.88239533  0.29870006  0.19311267     1.04500
O518        O  0.85845973  0.35297917  0.14246911    -1.12700
O519        O  0.79552546  0.32879802  0.12345184    -0.75200
O520        O  0.83287163  0.29240555  0.11612482    -0.78600
O521        O  0.92404424  0.36960538  0.16141195    -0.79300
C522        C  0.80397854  0.30008227  0.11885661     0.95900
O523        O  0.87375286  0.33400391  0.07608134    -0.77300
O524        O  0.79923833  0.37839143  0.16958541    -0.82500
C525        C  0.85823205  0.43223252  0.14406809     0.98500
C526        C  0.80822633  0.37783096  0.19834147     1.04500
O527        O  0.87502727  0.41760043  0.16444518    -0.78100
C528        C  0.85434272  0.35308641  0.06304310     1.02800
Fe529      Fe  0.13246063  0.19233848  0.37003817     1.65800
Fe530      Fe  0.13057824  0.13465509  0.31189683     1.73200
Fe531      Fe  0.18892021  0.13378546  0.36862293     1.54400
O532        O  0.21244659  0.17692262  0.37341279    -0.81900
O533        O  0.13184363  0.08897023  0.32959686    -0.80200
O534        O  0.17609471  0.21524144  0.37360385    -0.84400
O535        O  0.13573020  0.17475855  0.41601275    -0.79200
O536        O  0.21145577  0.12983805  0.32509781    -0.81000
O537        O  0.08468636  0.13906392  0.32912893    -0.83700
C538        C  0.15191878  0.15331785  0.42966818     0.97000
C539        C  0.20475661  0.20612337  0.37392562     1.04500
O540        O  0.15049015  0.15346119  0.35033028    -1.12700
O541        O  0.12750395  0.17766382  0.28923648    -0.75200
O542        O  0.12736374  0.21508867  0.32682375    -0.78600
O543        O  0.17150300  0.13592435  0.41460015    -0.79300
C544        C  0.12632118  0.20653526  0.29784537     0.95900
O545        O  0.08637603  0.17508354  0.36806154    -0.77300
O546        O  0.17345904  0.12888300  0.28852034    -0.82500
C547        C  0.14945379  0.07414838  0.34900168     0.98500
C548        C  0.20251649  0.12865832  0.29630418     1.04500
O549        O  0.17096372  0.08784570  0.36523179    -0.78100
C550        C  0.07104235  0.15624908  0.34996010     1.02800
Fe551      Fe  0.19086155  0.37470234  0.12633392     1.65800
Fe552      Fe  0.13635798  0.31465418  0.12858940     1.73200
Fe553      Fe  0.13290124  0.37496992  0.18280975     1.54400
O554        O  0.17598231  0.38683835  0.20456141    -0.81900
O555        O  0.09146516  0.33301408  0.12397304    -0.80200
O556        O  0.21390431  0.37673823  0.16917409    -0.84400
O557        O  0.17414485  0.42110824  0.13206490    -0.79200
O558        O  0.13430371  0.33371437  0.20852625    -0.81000
O559        O  0.14579815  0.32710497  0.08153651    -0.83700
C560        C  0.15009379  0.43428449  0.14469316     0.97000
C561        C  0.20507758  0.38316444  0.19733547     1.04500
O562        O  0.15318567  0.35496772  0.14576798    -1.12700
O563        O  0.17933441  0.29266300  0.13259227    -0.75200
O564        O  0.21353459  0.33117905  0.11879662    -0.78600
O565        O  0.12998079  0.41865917  0.16103811    -0.79300
C566        C  0.20693814  0.30219791  0.12527384     0.95900
O567        O  0.17116573  0.37370770  0.08150265    -0.77300
O568        O  0.12561739  0.29562189  0.17284249    -0.82500
C569        C  0.07501002  0.34940518  0.14323448     0.98500
C570        C  0.12945823  0.30480864  0.20140295     1.04500
O571        O  0.08719834  0.36468782  0.16651130    -0.78100
C572        C  0.15772061  0.35091935  0.06677676     1.02800
Fe573      Fe  0.37478631  0.12956850  0.18427727     1.65800
Fe574      Fe  0.31563443  0.13256442  0.12872753     1.73200
Fe575      Fe  0.37434115  0.18925657  0.12814182     1.54400
O576        O  0.38267607  0.21036503  0.17204997    -0.81900
O577        O  0.33315521  0.13367841  0.08321876    -0.80200
O578        O  0.37948474  0.17208102  0.20843442    -0.84400
O579        O  0.42052325  0.13363833  0.16583813    -0.79200
O580        O  0.33207906  0.21363887  0.12814160    -0.81000
O581        O  0.33098134  0.08613190  0.13172980    -0.83700
C582        C  0.43411558  0.14977269  0.14401866     0.97000
C583        C  0.38219539  0.20123390  0.20089611     1.04500
O584        O  0.35506843  0.15035526  0.14695757    -1.12700
O585        O  0.29361704  0.12963075  0.17222738    -0.75200
O586        O  0.33176513  0.12364030  0.20813511    -0.78600
O587        O  0.41919942  0.16973352  0.12694491    -0.79300
C588        C  0.30262255  0.12566646  0.20072287     0.95900
O589        O  0.37177181  0.08415612  0.16503154    -0.77300
O590        O  0.29417482  0.17656703  0.12354098    -0.82500
C591        C  0.35118915  0.15226624  0.06769271     0.98500
C592        C  0.30320870  0.20544033  0.12567129     1.04500
O593        O  0.36757341  0.17399951  0.08131395    -0.78100
C594        C  0.35217113  0.07067509  0.14631865     1.02800
Fe595      Fe  0.37652627  0.37531281  0.30883917     1.65800
Fe596      Fe  0.31761568  0.37641172  0.36586778     1.73200
Fe597      Fe  0.37441141  0.31831811  0.36688236     1.54400
O598        O  0.38194087  0.29557004  0.32393192    -0.81900
O599        O  0.33503434  0.37569825  0.41210616    -0.80200
O600        O  0.37984377  0.33200881  0.28565119    -0.84400
O601        O  0.42254391  0.37076205  0.32603489    -0.79200
O602        O  0.33111866  0.29497281  0.36893557    -0.81000
O603        O  0.33462625  0.42263633  0.36084963    -0.83700
C604        C  0.43575167  0.35480159  0.34806053     0.97000
C605        C  0.38259962  0.30333658  0.29473714     1.04500
O606        O  0.35625554  0.35681422  0.34728620    -1.12700
O607        O  0.29504815  0.37878652  0.32220490    -0.75200
O608        O  0.33353086  0.38138948  0.28588660    -0.78600
O609        O  0.41990246  0.33688160  0.36661521    -0.79300
C610        C  0.30435804  0.38084471  0.29349071     0.95900
O611        O  0.37527137  0.42106539  0.32687859    -0.77300
O612        O  0.29472585  0.33309350  0.37281098    -0.82500
C613        C  0.35340397  0.35693860  0.42691828     0.98500
C614        C  0.30259188  0.30392390  0.37234833     1.04500
O615        O  0.36895957  0.33528570  0.41267754    -0.78100
C616        C  0.35644897  0.43629300  0.34483801     1.02800
Fe617      Fe  0.18738898  0.63155077  0.12557953     1.65800
Fe618      Fe  0.13234096  0.63333560  0.18550958     1.73200
Fe619      Fe  0.13201742  0.69009108  0.12769248     1.54400
O620        O  0.17512624  0.71289516  0.12537460    -0.81900
O621        O  0.08551746  0.64136349  0.17190556    -0.80200
O622        O  0.20933290  0.67460348  0.11406264    -0.84400
O623        O  0.16568259  0.62967870  0.08150168    -0.79200
O624        O  0.12505825  0.71204210  0.17155349    -0.81000
O625        O  0.12878284  0.58857030  0.16578161    -0.83700
C626        C  0.14915652  0.65029289  0.06700539     0.97000
C627        C  0.20275890  0.70390317  0.11751213     1.04500
O628        O  0.15049945  0.65158039  0.14619775    -1.12700
O629        O  0.17664887  0.62375320  0.20512812    -0.75200
O630        O  0.21281237  0.63246777  0.16737426    -0.78600
O631        O  0.13696497  0.67395066  0.08144415    -0.79300
C632        C  0.20531405  0.62784918  0.19625948     0.95900
O633        O  0.17127340  0.58545090  0.13453868    -0.77300
O634        O  0.13418957  0.67610065  0.20937018    -0.82500
C635        C  0.07179616  0.65525741  0.14880592     0.98500
C636        C  0.12913483  0.70453132  0.20055905     1.04500
O637        O  0.08708979  0.67095424  0.12802787    -0.78100
C638        C  0.14797929  0.57252819  0.14907940     1.02800
Fe639      Fe  0.31251370  0.63316349  0.36897134     1.65800
Fe640      Fe  0.37162054  0.63621671  0.31294594     1.73200
Fe641      Fe  0.36903349  0.69236165  0.37254464     1.54400
O642        O  0.32551293  0.71438247  0.37638998    -0.81900
O643        O  0.41701851  0.64030497  0.33130173    -0.80200
O644        O  0.28906231  0.67587105  0.37489173    -0.84400
O645        O  0.32933982  0.63414576  0.41487256    -0.79200
O646        O  0.37440932  0.71655978  0.33006744    -0.81000
O647        O  0.36974770  0.58993750  0.32938568    -0.83700
C648        C  0.34835115  0.65143326  0.43075896     0.97000
C649        C  0.29677953  0.70512610  0.37636911     1.04500
O650        O  0.35118549  0.65382327  0.35157249    -1.12700
O651        O  0.32900970  0.63070852  0.28891030    -0.75200
O652        O  0.29066610  0.62987786  0.32536036    -0.78600
O653        O  0.36510297  0.67334254  0.41797249    -0.79300
C654        C  0.29989140  0.62899730  0.29669053     0.95900
O655        O  0.33030461  0.58757227  0.36462693    -0.77300
O656        O  0.37563835  0.67997129  0.29148860    -0.82500
C657        C  0.43051873  0.65699539  0.35272767     0.98500
C658        C  0.37593968  0.70866757  0.30096288     1.04500
O659        O  0.41514000  0.67585795  0.37055976    -0.78100
C660        C  0.35200384  0.57441814  0.34842279     1.02800
Fe661      Fe  0.13283183  0.87406828  0.31020742     1.65800
Fe662      Fe  0.13107105  0.81978704  0.37084953     1.73200
Fe663      Fe  0.18868846  0.87814637  0.36949331     1.54400
O664        O  0.21262595  0.88086567  0.32678665    -0.81900
O665        O  0.13469108  0.83859496  0.41605776    -0.80200
O666        O  0.17693212  0.87858565  0.28815494    -0.84400
O667        O  0.13417054  0.92048458  0.32596257    -0.79200
O668        O  0.21130992  0.83498299  0.37658679    -0.81000
O669        O  0.08580062  0.83812214  0.36776856    -0.83700
C670        C  0.15054780  0.93644701  0.34569954     0.97000
C671        C  0.20557164  0.88023475  0.29754111     1.04500
O672        O  0.15074460  0.85749810  0.35034574    -1.12700
O673        O  0.12571672  0.79459140  0.32878374    -0.75200
O674        O  0.12982608  0.82979936  0.28957528    -0.78600
O675        O  0.17089539  0.92376298  0.36397972    -0.79300
C676        C  0.12690566  0.80133165  0.29942302     0.95900
O677        O  0.08616100  0.87095749  0.32624701    -0.77300
O678        O  0.17392074  0.79715650  0.37568549    -0.82500
C679        C  0.15132462  0.85981300  0.42993490     0.98500
C680        C  0.20277843  0.80585976  0.37755121     1.04500
O681        O  0.17079182  0.87770954  0.41526154    -0.78100
C682        C  0.07149805  0.85640932  0.34843826     1.02800
Fe683      Fe  0.37445555  0.81366120  0.12859235     1.65800
Fe684      Fe  0.31898407  0.87282519  0.12602231     1.73200
Fe685      Fe  0.37457018  0.87325383  0.18464945     1.54400
O686        O  0.38077397  0.83021987  0.20751270    -0.81900
O687        O  0.33925371  0.91752178  0.12509506    -0.80200
O688        O  0.37441597  0.79118117  0.17192004    -0.84400
O689        O  0.42110469  0.82925258  0.13504349    -0.79200
O690        O  0.33147709  0.87583208  0.20749796    -0.81000
O691        O  0.33572544  0.86525246  0.08021734    -0.83700
C692        C  0.43477114  0.85223984  0.14958159     0.97000
C693        C  0.37844529  0.80094451  0.20013744     1.04500
O694        O  0.35614391  0.85329725  0.14629059    -1.12700
O695        O  0.29477776  0.83065254  0.12469905    -0.75200
O696        O  0.33034792  0.79226310  0.12026396    -0.78600
O697        O  0.41963420  0.87232505  0.16615248    -0.79300
C698        C  0.30166362  0.80163292  0.12099133     0.95900
O699        O  0.37607472  0.83137946  0.08299089    -0.77300
O700        O  0.29599386  0.88189295  0.16910142    -0.82500
C701        C  0.35676884  0.93272471  0.14447610     0.98500
C702        C  0.30315824  0.88029239  0.19842654     1.04500
O703        O  0.37038251  0.91940322  0.16778344    -0.78100
C704        C  0.35748611  0.84888242  0.06714219     1.02800
C705        C  0.22554083  0.89654855  0.24405554    -0.06000
C706        C  0.23166251  0.88144236  0.27330509     0.00000
C707        C  0.26199936  0.86744685  0.27820526    -0.08600
C708        C  0.28404443  0.86759145  0.25295400    -0.06000
C709        C  0.27780962  0.88224186  0.22347110    -0.00100
C710        C  0.24829441  0.89801746  0.21932847    -0.08500
C711        C  0.24097682  0.91742744  0.18969619     0.61900
H712        H  0.20263944  0.90767492  0.24080818     0.12500
H713        H  0.30664930  0.85589119  0.25613941     0.12600
C714        C  0.27137474  0.85183636  0.30954393     0.62100
F715        F  0.21338478  0.93491464  0.19315022    -0.23100
F716        F  0.23707038  0.89737055  0.16381254    -0.20400
F717        F  0.26553174  0.93878673  0.18377807    -0.20100
F718        F  0.24984701  0.82793365  0.31723971    -0.20100
F719        F  0.27222270  0.87450728  0.33350788    -0.20500
F720        F  0.30123076  0.83827537  0.30810534    -0.23100
C721        C  0.40179402  0.73257275  0.25398152    -0.06000
C722        C  0.37726320  0.73378244  0.27660994     0.00000
C723        C  0.35289398  0.75672015  0.27370527    -0.08600
C724        C  0.35454830  0.77863738  0.24849949    -0.06000
C725        C  0.37904169  0.77740267  0.22591644    -0.00100
C726        C  0.40306793  0.75412035  0.22837400    -0.08500
C727        C  0.42998943  0.75237002  0.20432701     0.61900
H728        H  0.41975366  0.71434513  0.25639845     0.12500
H729        H  0.33639738  0.79665709  0.24588058     0.12600
C730        C  0.32467577  0.75726381  0.29630104     0.62100
F731        F  0.45221965  0.72965645  0.21267539    -0.23100
F732        F  0.44530057  0.78165658  0.20242189    -0.20400
F733        F  0.41806708  0.74436886  0.17469765    -0.20100
F734        F  0.33446003  0.76743621  0.32606223    -0.20100
F735        F  0.31144575  0.72702497  0.29873761    -0.20500
F736        F  0.30116343  0.77759165  0.28574785    -0.23100
C737        C  0.27760488  0.75775774  0.39532311    -0.06000
C738        C  0.27148918  0.72973408  0.37776840     0.00000
C739        C  0.24252972  0.72691589  0.36060033    -0.08600
C740        C  0.22098247  0.75234553  0.36174482    -0.06000
C741        C  0.22719832  0.78045505  0.37899803    -0.00100
C742        C  0.25594321  0.78324638  0.39638572    -0.08500
C743        C  0.26365530  0.81251790  0.41645408     0.61900
H744        H  0.29980444  0.75961722  0.40821195     0.12500
H745        H  0.19898835  0.75065617  0.34848919     0.12600
C746        C  0.23442301  0.69787792  0.34023692     0.62100
F747        F  0.29042264  0.80804205  0.43497939    -0.23100
F748        F  0.23855022  0.81909942  0.43669152    -0.20400
F749        F  0.26933141  0.83852177  0.39690538    -0.20100
F750        F  0.22977420  0.67145676  0.35949335    -0.20100
F751        F  0.25873903  0.69203143  0.31890520    -0.20500
F752        F  0.20693730  0.70221904  0.32274664    -0.23100
C753        C  0.22042753  0.76010716  0.12332812    -0.06000
C754        C  0.22813833  0.72888280  0.11392776     0.00000
C755        C  0.25935899  0.72300843  0.10235963    -0.08600
C756        C  0.28251192  0.74732376  0.10550556    -0.06000
C757        C  0.27519624  0.77789153  0.11735915    -0.00100
C758        C  0.24289270  0.78492096  0.12477831    -0.08500
C759        C  0.23143517  0.81804011  0.13459233     0.61900
H760        H  0.19616803  0.76515416  0.12995939     0.12500
H761        H  0.30672720  0.74260845  0.09820330     0.12600
C762        C  0.26809138  0.69246051  0.08479133     0.62100
F763        F  0.19903565  0.81881874  0.14010522    -0.23100
F764        F  0.23761590  0.83977752  0.11050415    -0.20400
F765        F  0.24637514  0.82748880  0.16240311    -0.20100
F766        F  0.24638047  0.68679843  0.06071196    -0.20100
F767        F  0.26835155  0.66675197  0.10531441    -0.20500
F768        F  0.29790930  0.69457848  0.07094853    -0.23100
C769        C  0.14340567  0.78137628  0.24686243    -0.06000
C770        C  0.12652327  0.77540397  0.27515298     0.00000
C771        C  0.11046394  0.74563403  0.27892389    -0.08600
C772        C  0.11148389  0.72338517  0.25368979    -0.06000
C773        C  0.12808877  0.72977172  0.22530380    -0.00100
C774        C  0.14485854  0.75901991  0.22205614    -0.08500
C775        C  0.16549267  0.76623426  0.19327381     0.61900
H776        H  0.15610941  0.80382598  0.24445705     0.12500
H777        H  0.09935440  0.70059748  0.25595116     0.12600
C778        C  0.09213507  0.73721433  0.30901615     0.62100
F779        F  0.18328076  0.79386852  0.19737697    -0.23100
F780        F  0.14660712  0.77022056  0.16669694    -0.20400
F781        F  0.18639476  0.74137443  0.18832314    -0.20100
F782        F  0.07047792  0.76096611  0.31589869    -0.20100
F783        F  0.11299135  0.73387309  0.33418254    -0.20500
F784        F  0.07547494  0.70873537  0.30588716    -0.23100
C785        C  0.22707773  0.60685189  0.24700433    -0.06000
C786        C  0.23077396  0.62754981  0.22087644     0.00000
C787        C  0.25740299  0.64869314  0.22002358    -0.08600
C788        C  0.27958985  0.64769758  0.24497702    -0.06000
C789        C  0.27570239  0.62723433  0.27111124    -0.00100
C790        C  0.24898451  0.60641209  0.27232495    -0.08500
C791        C  0.24361696  0.58361449  0.29999567     0.61900
H792        H  0.20655855  0.59113261  0.24759644     0.12500
H793        H  0.30004035  0.66352899  0.24462136     0.12600
C794        C  0.26237046  0.67279419  0.19342935     0.62100
F795        F  0.21915743  0.56218332  0.29396672    -0.23100
F796        F  0.23574489  0.60073646  0.32702799    -0.20400
F797        F  0.27086020  0.56621086  0.30561295    -0.20100
F798        F  0.23516612  0.69061106  0.18912379    -0.20100
F799        F  0.26973741  0.65674479  0.16572171    -0.20500
F800        F  0.28704744  0.69387605  0.19983769    -0.23100
C801        C  0.36256650  0.52377242  0.32080123    -0.06000
C802        C  0.35548883  0.53917452  0.34962575     0.00000
C803        C  0.35070805  0.52062886  0.37754421    -0.08600
C804        C  0.35256282  0.48708225  0.37521786    -0.06000
C805        C  0.35886216  0.47168358  0.34611997    -0.00100
C806        C  0.36396748  0.49038223  0.31829149    -0.08500
C807        C  0.36929067  0.47550492  0.28560962     0.61900
H808        H  0.36593459  0.53827093  0.29968370     0.12500
H809        H  0.34839177  0.47246973  0.39613035     0.12600
C810        C  0.34388329  0.53592412  0.40965151     0.62100
F811        F  0.36972381  0.49817715  0.26159330    -0.23100
F812        F  0.34510058  0.45401445  0.27883732    -0.20400
F813        F  0.39817596  0.46000350  0.28499202    -0.20100
F814        F  0.31371436  0.54876027  0.40970597    -0.20100
F815        F  0.36596279  0.55979587  0.41574988    -0.20500
F816        F  0.34541493  0.51394957  0.43422928    -0.23100
C817        C  0.32895981  0.98300072  0.13613134    -0.06000
C818        C  0.35800988  0.96791706  0.14163452     0.00000
C819        C  0.38578442  0.98663394  0.14619426    -0.08600
C820        C  0.38298179  0.02018017  0.14642026    -0.06000
C821        C  0.35353171  0.03536850  0.14220437    -0.00100
C822        C  0.32591801  0.01631850  0.13657070    -0.08500
C823        C  0.29291653  0.03037791  0.13232933     0.61900
H824        H  0.30808674  0.96815250  0.13266232     0.12500
H825        H  0.40385153  0.03485836  0.15045950     0.12600
C826        C  0.41823174  0.97148964  0.15004046     0.62100
F827        F  0.26953606  0.00696931  0.13072770    -0.23100
F828        F  0.29177409  0.04762122  0.10427260    -0.20400
F829        F  0.28565659  0.04997807  0.15783931    -0.20100
F830        F  0.42360072  0.95033258  0.12530218    -0.20100
F831        F  0.41978535  0.95535447  0.17868979    -0.20500
F832        F  0.44237229  0.99414227  0.14968860    -0.23100
C833        C  0.40050767  0.25461061  0.21967977    -0.06000
C834        C  0.38427451  0.22589495  0.22653336     0.00000
C835        C  0.36904594  0.22243501  0.25668153    -0.08600
C836        C  0.36952915  0.24839086  0.27792419    -0.06000
C837        C  0.38490241  0.27734708  0.27068134    -0.00100
C838        C  0.40155275  0.28031613  0.24137817    -0.08500
C839        C  0.42130260  0.30978821  0.23330595     0.61900
H840        H  0.41245610  0.25682520  0.19692300     0.12500
H841        H  0.35717432  0.24645837  0.30049030     0.12600
C842        C  0.35141641  0.19212225  0.26653248     0.62100
F843        F  0.43912852  0.30548650  0.20589522    -0.23100
F844        F  0.44208430  0.31642271  0.25796775    -0.20400
F845        F  0.40177188  0.33571240  0.22841172    -0.20100
F846        F  0.37241541  0.16694342  0.26844963    -0.20100
F847        F  0.32785940  0.18519152  0.24465054    -0.20500
F848        F  0.33714058  0.19506732  0.29610617    -0.23100
C849        C  0.13315550  0.48483542  0.16962271    -0.06000
C850        C  0.14635645  0.46960983  0.14289238     0.00000
C851        C  0.15669950  0.48849855  0.11676795    -0.08600
C852        C  0.15534618  0.52198689  0.11931389    -0.06000
C853        C  0.14393176  0.53723507  0.14685460    -0.00100
C854        C  0.13174854  0.51827873  0.17228610    -0.08500
C855        C  0.11854472  0.53276396  0.20281388     0.61900
H856        H  0.12501532  0.47017142  0.18928004     0.12500
H857        H  0.16403958  0.53665500  0.09987670     0.12600
C858        C  0.16875452  0.47367225  0.08615420     0.62100
F859        F  0.11030274  0.50966555  0.22500776    -0.23100
F860        F  0.09147309  0.55001701  0.19607921    -0.20400
F861        F  0.14108301  0.55254384  0.21667269    -0.20100
F862        F  0.14748631  0.45050120  0.07596264    -0.20100
F863        F  0.19821902  0.46024683  0.09122548    -0.20500
F864        F  0.17194327  0.49604365  0.06204196    -0.23100
C865        C  0.25303751  0.40140425  0.27308018    -0.06000
C866        C  0.27999740  0.38242563  0.26791945     0.00000
C867        C  0.28227922  0.36434328  0.23940218    -0.08600
C868        C  0.25721382  0.36563917  0.21743768    -0.06000
C869        C  0.23010436  0.38448307  0.22247940    -0.00100
C870        C  0.22811023  0.40314610  0.25071062    -0.08500
C871        C  0.20048464  0.42544370  0.25708462     0.61900
H872        H  0.25173384  0.41506945  0.29495618     0.12500
H873        H  0.25853411  0.35135102  0.19597479     0.12600
C874        C  0.31048550  0.34293788  0.23228020     0.62100
F875        F  0.20568769  0.44437262  0.28366050    -0.23100
F876        F  0.17305046  0.40788261  0.26236974    -0.20400
F877        F  0.19622333  0.44550598  0.23127745    -0.20100
F878        F  0.31523007  0.32206222  0.25732049    -0.20100
F879        F  0.33741473  0.36146706  0.22768319    -0.20500
F880        F  0.30595656  0.32484912  0.20500527    -0.23100
C881        C  0.26254640  0.23705218  0.09765013    -0.06000
C882        C  0.27897025  0.23061013  0.12592662     0.00000
C883        C  0.27155877  0.24762561  0.15413488    -0.08600
C884        C  0.24823262  0.27146187  0.15283956    -0.06000
C885        C  0.23229026  0.27829747  0.12441877    -0.00100
C886        C  0.23906962  0.26078566  0.09646767    -0.08500
C887        C  0.22120545  0.26718533  0.06580540     0.61900
H888        H  0.26830867  0.22335665  0.07652865     0.02900
H889        H  0.24206515  0.28483656  0.17405969     0.12600
C890        C  0.28776498  0.24005607  0.18550730     0.62100
F891        F  0.23138408  0.24771156  0.04121420    -0.23100
F892        F  0.22579245  0.29865770  0.05673719    -0.20400
F893        F  0.18909637  0.26166724  0.07046496    -0.20100
F894        F  0.31965396  0.24784207  0.18352513    -0.20100
F895        F  0.28462702  0.20783836  0.19217279    -0.20500
F896        F  0.27471721  0.25693799  0.21065014    -0.23100
C897        C  0.14803711  0.98720805  0.37614028    -0.06000
C898        C  0.14677056  0.97157080  0.34650960     0.00000
C899        C  0.14456201  0.98990282  0.31812466    -0.08600
C900        C  0.14424785  0.02329190  0.32059941    -0.06000
C901        C  0.14661621  0.03895023  0.35003810    -0.00100
C902        C  0.14791005  0.02079591  0.37845790    -0.08500
C903        C  0.14872450  0.03666052  0.41097577     0.61900
H904        H  0.14970272  0.97283152  0.39752899     0.12500
H905        H  0.14326771  0.03766599  0.29917032     0.12600
C906        C  0.14401384  0.97471276  0.28513420     0.62100
F907        F  0.14417158  0.01472527  0.43526755    -0.23100
F908        F  0.12489861  0.05917752  0.41309946    -0.20400
F909        F  0.17782934  0.05141073  0.41561123    -0.20100
F910        F  0.11585955  0.95803659  0.28091380    -0.20100
F911        F  0.16941105  0.95418509  0.28166853    -0.20500
F912        F  0.14619396  0.99729727  0.26111832    -0.23100
C913        C  0.23040302  0.25421526  0.39757947    -0.06000
C914        C  0.23037592  0.23057409  0.37385817     0.00000
C915        C  0.25398521  0.23136496  0.34970541    -0.08600
C916        C  0.27731135  0.25549166  0.35056876    -0.06000
C917        C  0.27740458  0.27913600  0.37420731    -0.00100
C918        C  0.25375466  0.27854775  0.39834688    -0.08500
C919        C  0.25380142  0.30273045  0.42534041     0.61900
H920        H  0.21200334  0.25331350  0.41565716     0.12500
H921        H  0.29553670  0.25642608  0.33229366     0.12600
C922        C  0.25373057  0.20775062  0.32226132     0.62100
F923        F  0.23100361  0.29556434  0.44810584    -0.23100
F924        F  0.24750433  0.33287671  0.41360860    -0.20400
F925        F  0.28314226  0.30296516  0.44012732    -0.20100
F926        F  0.22396658  0.20710001  0.30854228    -0.20100
F927        F  0.26123587  0.17760948  0.33322534    -0.20500
F928        F  0.27539374  0.21599995  0.29878164    -0.23100
C929        C  0.25436438  0.10868027  0.27656362    -0.06000
C930        C  0.22724224  0.12728161  0.27098074     0.00000
C931        C  0.22526173  0.14525708  0.24237912    -0.08600
C932        C  0.25045725  0.14365068  0.22048839    -0.06000
C933        C  0.27764046  0.12513909  0.22595598    -0.00100
C934        C  0.27956659  0.10696297  0.25443268    -0.08500
C935        C  0.30734890  0.08502831  0.26115918     0.61900
H936        H  0.25556131  0.09521753  0.29855956     0.12500
H937        H  0.24902282  0.15713819  0.19855143     0.12600
C938        C  0.19708570  0.16649207  0.23473529     0.62100
F939        F  0.30209060  0.06633403  0.28788573    -0.23100
F940        F  0.33454587  0.10295732  0.26638138    -0.20400
F941        F  0.31205325  0.06473797  0.23556370    -0.20100
F942        F  0.19079386  0.18668324  0.25994458    -0.20100
F943        F  0.17065705  0.14771863  0.22864951    -0.20500
F944        F  0.20263854  0.18542319  0.20821857    -0.23100
C945        C  0.10913829  0.25342798  0.22229754    -0.06000
C946        C  0.12817800  0.28069998  0.22720270     0.00000
C947        C  0.14648045  0.28335129  0.25555382    -0.08600
C948        C  0.14427920  0.25877840  0.27815801    -0.06000
C949        C  0.12546293  0.23150028  0.27308775    -0.00100
C950        C  0.10760130  0.22850214  0.24462541    -0.08500
C951        C  0.08671460  0.19950654  0.23773365     0.61900
H952        H  0.09561716  0.25160018  0.20051097     0.12500
H953        H  0.15802837  0.26027829  0.29985089     0.12600
C954        C  0.16929505  0.31105657  0.26179681     0.62100
F955        F  0.06795106  0.20398545  0.21108146    -0.23100
F956        F  0.06677829  0.19357465  0.26332427    -0.20400
F957        F  0.10544282  0.17306734  0.23217289    -0.20100
F958        F  0.15243862  0.33892121  0.26639463    -0.20100
F959        F  0.18986577  0.31466900  0.23628683    -0.20500
F960        F  0.18754033  0.30616068  0.28874425    -0.23100
C961        C  0.98854119  0.32401287  0.13426483    -0.06000
C962        C  0.97285861  0.35327223  0.13823038     0.00000
C963        C  0.99112461  0.38175414  0.14151461    -0.08600
C964        C  0.02452213  0.37954936  0.14198281    -0.06000
C965        C  0.04005019  0.35009578  0.13913242    -0.00100
C966        C  0.02179781  0.32173729  0.13501065    -0.08500
C967        C  0.03701332  0.28888911  0.13331190     0.61900
H968        H  0.97434370  0.30246934  0.13192371     0.12500
H969        H  0.03887629  0.40088537  0.14521598     0.12600
C970        C  0.97574881  0.41436893  0.14424499     0.62100
F971        F  0.01459197  0.26451293  0.13302339    -0.23100
F972        F  0.05625319  0.28434223  0.15955262    -0.20400
F973        F  0.05489896  0.28630038  0.10579664    -0.20100
F974        F  0.96145975  0.41754269  0.17374210    -0.20100
F975        F  0.95323026  0.41793727  0.12058249    -0.20500
F976        F  0.99779797  0.43886684  0.14097928    -0.23100
C977        C  0.98382702  0.18037780  0.35648343    -0.06000
C978        C  0.96832950  0.15207139  0.34728048     0.00000
C979        C  0.98660521  0.12443223  0.34098399    -0.08600
C980        C  0.01996999  0.12647619  0.34361600    -0.06000
C981        C  0.03562163  0.15513868  0.35194011    -0.00100
C982        C  0.01709182  0.18274352  0.35847750    -0.08500
C983        C  0.03193774  0.21515448  0.36601262     0.61900
H984        H  0.96945821  0.20125136  0.36111256     0.12500
H985        H  0.03424696  0.10566922  0.33844176     0.12600
C986        C  0.97113274  0.09287856  0.33175829     0.62100
F987        F  0.00944674  0.23906823  0.36800893    -0.23100
F988        F  0.05319885  0.22368977  0.34226666    -0.20400
F989        F  0.04742265  0.21387218  0.39499090    -0.20100
F990        F  0.95812023  0.09530219  0.30166734    -0.20100
F991        F  0.94754820  0.08505869  0.35344912    -0.20500
F992        F  0.99279009  0.06813913  0.33126390    -0.23100
C993        C  0.85539910  0.22966577  0.24492844    -0.06000
C994        C  0.88054926  0.22773994  0.26662012     0.00000
C995        C  0.90679582  0.24898994  0.26397547    -0.08600
C996        C  0.90673211  0.27180712  0.23935067    -0.06000
C997        C  0.88163250  0.27345653  0.21749834    -0.00100
C998        C  0.85527166  0.25241415  0.22045534    -0.08500
C999        C  0.82668423  0.25447634  0.19849825     0.61900
H1000       H  0.83558010  0.21322169  0.24753850     0.12500
H1001       H  0.92634505  0.28849958  0.23683992     0.12600
C1002       C  0.93506755  0.24698711  0.28631576     0.62100
F1003       F  0.80223097  0.23435088  0.20809072    -0.23100
F1004       F  0.83539736  0.24577134  0.16798127    -0.20400
F1005       F  0.81514843  0.28536413  0.19827745    -0.20100
F1006       F  0.94664113  0.21611884  0.28665383    -0.20100
F1007       F  0.92602223  0.25556770  0.31679886    -0.20500
F1008       F  0.95954731  0.26719218  0.27698691    -0.23100
C1009       C  0.52267080  0.33205043  0.36162731    -0.06000
C1010       C  0.53895924  0.35790277  0.34758098     0.00000
C1011       C  0.52095438  0.38437365  0.33649894    -0.08600
C1012       C  0.48746167  0.38285048  0.33847465    -0.06000
C1013       C  0.47121777  0.35616633  0.35110023    -0.00100
C1014       C  0.48936770  0.33038407  0.36346819    -0.08500
C1015       C  0.47423407  0.30027535  0.37737848     0.61900
H1016       H  0.53636793  0.31211185  0.37030297     0.12500
H1017       H  0.47352914  0.40246155  0.32935993     0.12600
C1018       C  0.53648338  0.41428790  0.32276757     0.62100
F1019       F  0.49658877  0.27779743  0.38605547    -0.23100
F1020       F  0.45448417  0.28613793  0.35506210    -0.20400
F1021       F  0.45712038  0.30789244  0.40446180    -0.20100
F1022       F  0.55025889  0.40747249  0.29363354    -0.20100
F1023       F  0.55933407  0.42569292  0.34357049    -0.20500
F1024       F  0.51474279  0.43849100  0.31799650    -0.23100
C1025       C  0.77987721  0.25156635  0.34997814    -0.06000
C1026       C  0.77592993  0.22460588  0.36956086     0.00000
C1027       C  0.74795771  0.22166720  0.38844938    -0.08600
C1028       C  0.72510710  0.24605985  0.38689084    -0.06000
C1029       C  0.72953296  0.27316348  0.36772610    -0.00100
C1030       C  0.75729266  0.27596383  0.34865544    -0.08500
C1031       C  0.76295011  0.30404601  0.32624989     0.61900
H1032       H  0.80103390  0.25339723  0.33536500     0.12500
H1033       H  0.70359006  0.24437030  0.40099655     0.12600
C1034       C  0.74226854  0.19357672  0.41072408     0.62100
F1035       F  0.78889654  0.29928379  0.30651978    -0.23100
F1036       F  0.76868748  0.33152238  0.34368294    -0.20400
F1037       F  0.73667218  0.30829366  0.30704920    -0.20100
F1038       F  0.76823779  0.18962791  0.43043983    -0.20100
F1039       F  0.73721773  0.16603183  0.39318937    -0.20500
F1040       F  0.71588561  0.19810914  0.42990168    -0.23100
C1041       C  0.76277888  0.38977866  0.27655019    -0.06000
C1042       C  0.73251078  0.37824476  0.26792188     0.00000
C1043       C  0.72734547  0.36757487  0.23613854    -0.08600
C1044       C  0.75295566  0.36805099  0.21480400    -0.06000
C1045       C  0.78328323  0.37916072  0.22342808    -0.00100
C1046       C  0.78831561  0.39075594  0.25484085    -0.08500
C1047       C  0.82000790  0.40465625  0.26554923     0.61900
H1048       H  0.76634218  0.39812596  0.30071164     0.12500
H1049       H  0.74945670  0.35911202  0.19085595     0.12600
C1050       C  0.69547948  0.35476985  0.22440514     0.62100
F1051       F  0.81805784  0.41837114  0.29551553    -0.23100
F1052       F  0.82986951  0.42816625  0.24449749    -0.20400
F1053       F  0.84251411  0.38079244  0.26689084    -0.20100
F1054       F  0.67296975  0.37865696  0.22533558    -0.20100
F1055       F  0.68589057  0.32929567  0.24315803    -0.20500
F1056       F  0.69692318  0.34412566  0.19322866    -0.23100
C1057       C  0.52076226  0.12161985  0.14465078    -0.06000
C1058       C  0.53677273  0.15014935  0.13675526     0.00000
C1059       C  0.51866906  0.17760938  0.12886595    -0.08600
C1060       C  0.48535301  0.17558428  0.13032854    -0.06000
C1061       C  0.46928358  0.14754880  0.13967930    -0.00100
C1062       C  0.48728639  0.11966607  0.14605223    -0.08500
C1063       C  0.47156135  0.08787883  0.15401162     0.61900
H1064       H  0.53484195  0.10083398  0.15041975     0.12500
H1065       H  0.47145824  0.19666598  0.12530427     0.12600
C1066       C  0.53408085  0.20958385  0.12050478     0.62100
F1067       F  0.49303630  0.06297989  0.15317556    -0.23100
F1068       F  0.44791298  0.08118155  0.13212134    -0.20400
F1069       F  0.45864550  0.08901791  0.18428602    -0.20100
F1070       F  0.55045296  0.20702993  0.09203514    -0.20100
F1071       F  0.55471059  0.21884374  0.14445651    -0.20500
F1072       F  0.51192871  0.23361505  0.11694372    -0.23100
C1073       C  0.75592501  0.22430105  0.09928315    -0.06000
C1074       C  0.72957758  0.22795643  0.11947606     0.00000
C1075       C  0.72855977  0.25471444  0.14035187    -0.08600
C1076       C  0.75304871  0.27774730  0.13874081    -0.06000
C1077       C  0.77912657  0.27447432  0.11810308    -0.00100
C1078       C  0.78093837  0.24690077  0.09832636    -0.08500
C1079       C  0.80863220  0.24137957  0.07574527     0.61900
H1080       H  0.75672123  0.20343263  0.08408128     0.12500
H1081       H  0.75226328  0.29844353  0.15421728     0.12600
C1082       C  0.70262586  0.25849384  0.16533026     0.62100
F1083       F  0.80360633  0.21509817  0.05629461    -0.23100
F1084       F  0.83602910  0.23591157  0.09294771    -0.20400
F1085       F  0.81289721  0.26781470  0.05638688    -0.20100
F1086       F  0.69875668  0.23029717  0.18208669    -0.20100
F1087       F  0.67432537  0.26655896  0.15085633    -0.20500
F1088       F  0.71003901  0.28211576  0.18718086    -0.23100
C1089       C  0.71923054  0.12114025  0.25083596    -0.06000
C1090       C  0.72876426  0.11857239  0.21887262     0.00000
C1091       C  0.76150883  0.11325997  0.21218958    -0.08600
C1092       C  0.78346588  0.11416460  0.23746002    -0.06000
C1093       C  0.77423887  0.11889508  0.26935703    -0.00100
C1094       C  0.74103656  0.12091638  0.27628895    -0.08500
C1095       C  0.72792381  0.12293976  0.31005067     0.61900
H1096       H  0.69422197  0.12411780  0.25583261     0.12500
H1097       H  0.80846084  0.11160605  0.23213455     0.12600
C1098       C  0.77377659  0.10607495  0.17881344     0.62100
F1099       F  0.69504328  0.12180396  0.31074669    -0.23100
F1100       F  0.73728802  0.15141760  0.32401313    -0.20400
F1101       F  0.73867349  0.09737937  0.32782306    -0.20100
F1102       F  0.77275402  0.13335014  0.16025608    -0.20100
F1103       F  0.75555504  0.08214614  0.16503364    -0.20500
F1104       F  0.80490426  0.09562020  0.17914111    -0.23100
C1105       C  0.60804818  0.25296593  0.21484180    -0.06000
C1106       C  0.62613948  0.22533400  0.22037682     0.00000
C1107       C  0.64400385  0.22304355  0.24904957    -0.08600
C1108       C  0.64350899  0.24879747  0.27048195    -0.06000
C1109       C  0.62576727  0.27645977  0.26479071    -0.00100
C1110       C  0.60724140  0.27851967  0.23675472    -0.08500
C1111       C  0.58607645  0.30701138  0.23032330     0.61900
H1112       H  0.59439786  0.25440084  0.19309489     0.12500
H1113       H  0.65736559  0.24762574  0.29212297     0.12600
C1114       C  0.66415552  0.19409455  0.25721778     0.62100
F1115       F  0.56641656  0.30182662  0.20440652    -0.23100
F1116       F  0.60457672  0.33370136  0.22402796    -0.20400
F1117       F  0.56700744  0.31284496  0.25655248    -0.20100
F1118       F  0.68520438  0.18790500  0.23270148    -0.20100
F1119       F  0.64474664  0.16776269  0.26225694    -0.20500
F1120       F  0.68182908  0.19873795  0.28463593    -0.23100
C1121       C  0.48027375  0.62631265  0.34575424    -0.06000
C1122       C  0.46579855  0.65470073  0.35592981     0.00000
C1123       C  0.48550056  0.68050415  0.36620410    -0.08600
C1124       C  0.51871823  0.67737490  0.36375427    -0.06000
C1125       C  0.53323102  0.64945973  0.35217610    -0.00100
C1126       C  0.51348838  0.62301968  0.34423749    -0.08500
C1127       C  0.52720604  0.59073959  0.33668885     0.61900
H1128       H  0.46519019  0.60642713  0.33881952     0.12500
H1129       H  0.53378601  0.69737602  0.37030893     0.12600
C1130       C  0.47204854  0.71171354  0.37883566     0.62100
F1131       F  0.50420338  0.56694245  0.33550305    -0.23100
F1132       F  0.54807934  0.58313892  0.36064084    -0.20400
F1133       F  0.54265783  0.59149451  0.30762139    -0.20100
F1134       F  0.45485591  0.70596034  0.40638217    -0.20100
F1135       F  0.45269659  0.72545000  0.35612996    -0.20500
F1136       F  0.49566184  0.73366314  0.38628321    -0.23100
C1137       C  0.62813370  0.48172027  0.35202953    -0.06000
C1138       C  0.65761812  0.46727768  0.34775062     0.00000
C1139       C  0.68530232  0.48648252  0.34408559    -0.08600
C1140       C  0.68212407  0.51988570  0.34473353    -0.06000
C1141       C  0.65241675  0.53451887  0.34839012    -0.00100
C1142       C  0.62503402  0.51505651  0.35256514    -0.08500
C1143       C  0.59272870  0.52923425  0.35781030     0.61900
H1144       H  0.60736831  0.46651439  0.35461065     0.12500
H1145       H  0.70289133  0.53497186  0.34146385     0.12600
C1146       C  0.71781694  0.47200959  0.33806049     0.62100
F1147       F  0.57036216  0.50645676  0.36663905    -0.23100
F1148       F  0.58279128  0.54309694  0.32974138    -0.20400
F1149       F  0.59462224  0.55172450  0.38190437    -0.20100
F1150       F  0.71650005  0.45191418  0.31191703    -0.20100
F1151       F  0.72740396  0.45491900  0.36446636    -0.20500
F1152       F  0.74069473  0.49518009  0.33201386    -0.23100
C1153       C  0.52173011  0.86349257  0.17214259    -0.06000
C1154       C  0.53711096  0.85431918  0.14398235     0.00000
C1155       C  0.51868699  0.84650707  0.11673591    -0.08600
C1156       C  0.48529269  0.84694745  0.11933552    -0.06000
C1157       C  0.46993686  0.85514971  0.14793460    -0.00100
C1158       C  0.48853681  0.86392119  0.17486470    -0.08500
C1159       C  0.47391366  0.87249736  0.20693466     0.61900
H1160       H  0.53617091  0.86937470  0.19268921     0.12500
H1161       H  0.47080258  0.84043765  0.09900096     0.12600
C1162       C  0.53392165  0.83825627  0.08496471     0.62100
F1163       F  0.49663856  0.87600486  0.23050519    -0.23100
F1164       F  0.45311522  0.84866970  0.21660904    -0.20400
F1165       F  0.45794970  0.90114732  0.20454155    -0.20100
F1166       F  0.54820475  0.80867621  0.08674491    -0.20100
F1167       F  0.55643028  0.86118189  0.07706260    -0.20500
F1168       F  0.51178454  0.83706337  0.06063496    -0.23100
C1169       C  0.65426539  0.01738536  0.11323744    -0.06000
C1170       C  0.64840445  0.03355918  0.14199165     0.00000
C1171       C  0.64300896  0.01556575  0.17019676    -0.08600
C1172       C  0.64451107  0.98214505  0.16860585    -0.06000
C1173       C  0.65102400  0.96575007  0.14013166    -0.00100
C1174       C  0.65516601  0.98364643  0.11159519    -0.08500
C1175       C  0.65966368  0.96757432  0.07945345     0.61900
H1176       H  0.65829395  0.03151134  0.09199359     0.12500
H1177       H  0.64130137  0.96843795  0.19022559     0.12600
C1178       C  0.63707978  0.03125228  0.20240321     0.62100
F1179       F  0.65815704  0.98928669  0.05463436    -0.23100
F1180       F  0.63598901  0.94495608  0.07478211    -0.20400
F1181       F  0.68901307  0.95303253  0.07811813    -0.20100
F1182       F  0.60835999  0.04705988  0.20203061    -0.20100
F1183       F  0.66133148  0.05261532  0.20920331    -0.20500
F1184       F  0.63581384  0.00917936  0.22694929    -0.23100
C1185       C  0.60138362  0.74889696  0.26992043    -0.06000
C1186       C  0.62487851  0.72527205  0.26929490     0.00000
C1187       C  0.64911899  0.72659459  0.24574924    -0.08600
C1188       C  0.64832452  0.75121108  0.22311518    -0.06000
C1189       C  0.62438739  0.77429770  0.22311138    -0.00100
C1190       C  0.60059401  0.77351076  0.24706374    -0.08500
C1191       C  0.57425157  0.79808345  0.24829001     0.61900
H1192       H  0.58349239  0.74777775  0.28846624     0.12500
H1193       H  0.66681122  0.75290514  0.20527068     0.12600
C1194       C  0.67628917  0.70280919  0.24480182     0.62100
F1195       F  0.55138918  0.79027342  0.27078228    -0.23100
F1196       F  0.55946253  0.79997500  0.21896197    -0.20400
F1197       F  0.58678945  0.82765384  0.25622371    -0.20100
F1198       F  0.66493288  0.67300531  0.23607527    -0.20100
F1199       F  0.69042166  0.70089550  0.27440235    -0.20500
F1200       F  0.69955033  0.71161872  0.22307433    -0.23100
C1201       C  0.85643452  0.51990160  0.11799039    -0.06000
C1202       C  0.86003048  0.53520025  0.14756917     0.00000
C1203       C  0.86423263  0.51651983  0.17545354    -0.08600
C1204       C  0.86510310  0.48315634  0.17248566    -0.06000
C1205       C  0.86055917  0.46767652  0.14313931    -0.00100
C1206       C  0.85628121  0.48631266  0.11522904    -0.08500
C1207       C  0.85110253  0.47116888  0.08276379     0.61900
H1208       H  0.85281889  0.53456577  0.09708206     0.12500
H1209       H  0.86795398  0.46868733  0.19363634     0.12600
C1210       C  0.86583493  0.53129265  0.20859407     0.62100
F1211       F  0.85341655  0.49345937  0.05848621    -0.23100
F1212       F  0.82110582  0.45756975  0.08150098    -0.20400
F1213       F  0.87368616  0.44794165  0.07726395    -0.20100
F1214       F  0.84020485  0.55128115  0.21328528    -0.20100
F1215       F  0.89380065  0.54846370  0.21198714    -0.20500
F1216       F  0.86493583  0.50835989  0.23235771    -0.23100
C1217       C  0.98486116  0.67662376  0.13528053    -0.06000
C1218       C  0.96917823  0.64976826  0.14795025     0.00000
C1219       C  0.98749174  0.62393695  0.15970379    -0.08600
C1220       C  0.02090011  0.62633256  0.15848556    -0.06000
C1221       C  0.03652779  0.65362015  0.14651125    -0.00100
C1222       C  0.01809512  0.67942160  0.13473970    -0.08500
C1223       C  0.03289010  0.71062316  0.12304031     0.61900
H1224       H  0.97063792  0.69625744  0.12667878     0.12500
H1225       H  0.03521254  0.60695561  0.16754771     0.12600
C1226       C  0.97224435  0.59397028  0.17353679     0.62100
F1227       F  0.01024319  0.73363271  0.11685326    -0.23100
F1228       F  0.04947654  0.70540183  0.09507382    -0.20400
F1229       F  0.05313976  0.72289113  0.14598191    -0.20100
F1230       F  0.94951124  0.58211494  0.15283921    -0.20100
F1231       F  0.95829071  0.60099476  0.20252825    -0.20500
F1232       F  0.99429622  0.57011140  0.17859119    -0.23100
C1233       C  0.72218288  0.60922558  0.24280243    -0.06000
C1234       C  0.72812937  0.62648895  0.27101796     0.00000
C1235       C  0.75796571  0.64266249  0.27438514    -0.08600
C1236       C  0.78007405  0.64100452  0.24929319    -0.06000
C1237       C  0.77400927  0.62389095  0.22122886    -0.00100
C1238       C  0.74471973  0.60733747  0.21793783    -0.08500
C1239       C  0.73767793  0.58682335  0.18892590     0.61900
H1240       H  0.69966655  0.59680807  0.24042992     0.12500
H1241       H  0.80261611  0.65346590  0.25127853     0.12600
C1242       C  0.76697262  0.66209664  0.30381486     0.62100
F1243       F  0.71002262  0.56911607  0.19268212    -0.23100
F1244       F  0.76232492  0.56569495  0.18387796    -0.20400
F1245       F  0.73413985  0.60599968  0.16239182    -0.20100
F1246       F  0.76975784  0.64216097  0.32990409    -0.20100
F1247       F  0.74425814  0.68506809  0.30972129    -0.20500
F1248       F  0.79583274  0.67774114  0.30019847    -0.23100
C1249       C  0.75995415  0.78191488  0.11532631    -0.06000
C1250       C  0.72817112  0.77162820  0.11801124     0.00000
C1251       C  0.72174672  0.73815656  0.11985016    -0.08600
C1252       C  0.74751343  0.71688744  0.12020633    -0.06000
C1253       C  0.77931336  0.72733707  0.11855853    -0.00100
C1254       C  0.78565137  0.76067472  0.11552223    -0.08500
C1255       C  0.81910303  0.77445237  0.11242090     0.61900
H1256       H  0.76477327  0.80726665  0.11343312     0.12500
H1257       H  0.74285540  0.69152512  0.12236607     0.12600
C1258       C  0.68825270  0.72428280  0.12176768     0.62100
F1259       F  0.81900348  0.80690790  0.10598111    -0.23100
F1260       F  0.83496190  0.75959949  0.08766606    -0.20400
F1261       F  0.83548713  0.77022167  0.14061971    -0.20100
F1262       F  0.67151341  0.73214514  0.09461180    -0.20100
F1263       F  0.67282818  0.73599287  0.14832622    -0.20500
F1264       F  0.68814682  0.69126546  0.12414023    -0.23100
C1265       C  0.98408504  0.88083930  0.33820458    -0.06000
C1266       C  0.96829859  0.85468080  0.35242573     0.00000
C1267       C  0.98681678  0.83089976  0.36781751    -0.08600
C1268       C  0.02012841  0.83346551  0.36665693    -0.06000
C1269       C  0.03601476  0.85865648  0.35099220    -0.00100
C1270       C  0.01755142  0.88353612  0.33741459    -0.08500
C1271       C  0.03260867  0.91303004  0.32235429     0.61900
H1272       H  0.96986341  0.89914661  0.32705841     0.12500
H1273       H  0.03420103  0.81480281  0.37733797     0.12600
C1274       C  0.97207669  0.80211264  0.38461551     0.62100
F1275       F  0.01032104  0.93629500  0.31581783    -0.23100
F1276       F  0.04717213  0.90494378  0.29395126    -0.20400
F1277       F  0.05475249  0.92623015  0.34291422    -0.20100
F1278       F  0.95317451  0.78506716  0.36359741    -0.20100
F1279       F  0.95413915  0.81223439  0.41031646    -0.20500
F1280       F  0.99476272  0.78136898  0.39620534    -0.23100
C1281       C  0.87001144  0.98355729  0.31917401    -0.06000
C1282       C  0.86091556  0.96811739  0.34744630     0.00000
C1283       C  0.85514276  0.98650227  0.37520013    -0.08600
C1284       C  0.85595124  0.02004394  0.37273544    -0.06000
C1285       C  0.86301179  0.03549149  0.34382296    -0.00100
C1286       C  0.87129718  0.01694273  0.31670210    -0.08500
C1287       C  0.87997744  0.03182823  0.28471539     0.61900
H1288       H  0.87485220  0.96909621  0.29836127     0.12500
H1289       H  0.85031089  0.03454306  0.39332769     0.12600
C1290       C  0.84874847  0.97105856  0.40733253     0.62100
F1291       F  0.88478760  0.00900747  0.26132711    -0.23100
F1292       F  0.90783864  0.04927280  0.28756199    -0.20400
F1293       F  0.85578649  0.05152813  0.27453360    -0.20100
F1294       F  0.87138427  0.94802548  0.41333139    -0.20100
F1295       F  0.81889634  0.95711951  0.40761194    -0.20500
F1296       F  0.85000603  0.99318536  0.43184845    -0.23100
C1297       C  0.74586011  0.78400450  0.35983671    -0.06000
C1298       C  0.77479581  0.77690279  0.37463508     0.00000
C1299       C  0.77852014  0.74676193  0.38964323    -0.08600
C1300       C  0.75315021  0.72469151  0.38862967    -0.06000
C1301       C  0.72420029  0.73158043  0.37350043    -0.00100
C1302       C  0.72039690  0.76209740  0.35888773    -0.08500
C1303       C  0.69019231  0.77182389  0.34162960     0.61900
H1304       H  0.74352654  0.80705549  0.34836929     0.12500
H1305       H  0.75589821  0.70152379  0.39974063     0.12600
C1306       C  0.80870059  0.73788685  0.40730196     0.62100
F1307       F  0.69310352  0.80148192  0.32724669    -0.23100
F1308       F  0.66525307  0.77354762  0.36303431    -0.20400
F1309       F  0.68315092  0.74989251  0.31802232    -0.20100
F1310       F  0.81677014  0.76184942  0.42858899    -0.20100
F1311       F  0.83325931  0.73349366  0.38586438    -0.20500
F1312       F  0.80505473  0.70982814  0.42442982    -0.23100
C1313       C  0.75681576  0.85252073  0.26694646    -0.06000
C1314       C  0.77711508  0.87920444  0.26869378     0.00000
C1315       C  0.77327432  0.90471836  0.24687935    -0.08600
C1316       C  0.74886811  0.90257839  0.22394603    -0.06000
C1317       C  0.72846348  0.87591081  0.22238454    -0.00100
C1318       C  0.73280474  0.85012591  0.24381376    -0.08500
C1319       C  0.71295203  0.81970006  0.24161590     0.61900
H1320       H  0.76019110  0.83326628  0.28379475     0.12500
H1321       H  0.74537128  0.92181921  0.20712163     0.12600
C1322       C  0.79425442  0.93432521  0.24836139     0.62100
F1323       F  0.72423309  0.79599959  0.26153822    -0.23100
F1324       F  0.71363297  0.80802200  0.21077469    -0.20400
F1325       F  0.68192297  0.82598320  0.25022489    -0.20100
F1326       F  0.82521358  0.92635646  0.24099919    -0.20100
F1327       F  0.79324043  0.94729280  0.27866493    -0.20500
F1328       F  0.78453875  0.95752594  0.22706084    -0.23100
C1329       C  0.90384999  0.77177902  0.25292087    -0.06000
C1330       C  0.87703050  0.77475022  0.27245091     0.00000
C1331       C  0.85029539  0.75467832  0.26769061    -0.08600
C1332       C  0.85183984  0.73109623  0.24398262    -0.06000
C1333       C  0.87875676  0.72784093  0.22451927    -0.00100
C1334       C  0.90520483  0.74855137  0.22873623    -0.08500
C1335       C  0.93486987  0.74578195  0.20832513     0.61900
H1336       H  0.92366818  0.78797017  0.25672993     0.12500
H1337       H  0.83181583  0.71514211  0.24019465     0.12600
C1338       C  0.82018683  0.75849204  0.28727389     0.62100
F1339       F  0.95896626  0.76577380  0.21894254    -0.23100
F1340       F  0.92799200  0.75407077  0.17724005    -0.20400
F1341       F  0.94593595  0.71474047  0.20911651    -0.20100
F1342       F  0.81004124  0.78984237  0.28610705    -0.20100
F1343       F  0.82617800  0.75020579  0.31850323    -0.20500
F1344       F  0.79572226  0.73928491  0.27612058    -0.23100
C1345       C  0.13474565  0.32978837  0.01638970    -0.06000
C1346       C  0.15572128  0.35151676  0.03113285     0.00000
C1347       C  0.17526417  0.37119105  0.01140687    -0.08600
C1348       C  0.17062836  0.37044845  0.97822970    -0.06000
C1349       C  0.14958909  0.34880919  0.96345674    -0.00100
C1350       C  0.13231682  0.32695311  0.98305642    -0.08500
C1351       C  0.11238358  0.29973387  0.96949393     0.61900
H1352       H  0.12046805  0.31424041  0.03132839     0.12500
H1353       H  0.18437966  0.38652195  0.96334655     0.12600
C1354       C  0.20206238  0.39187822  0.02452214     0.62100
F1355       F  0.10120883  0.27930123  0.99298754    -0.23100
F1356       F  0.13046600  0.28170202  0.94869478    -0.20400
F1357       F  0.08639242  0.31196843  0.95382703    -0.20100
F1358       F  0.22171577  0.37368610  0.04355711    -0.20100
F1359       F  0.18965641  0.41677522  0.04195114    -0.20500
F1360       F  0.22069043  0.40500829  0.00059280    -0.23100
C1361       C  0.32897320  0.13686700  0.98059670    -0.06000
C1362       C  0.35500418  0.15037494  0.96447789     0.00000
C1363       C  0.38105800  0.16233067  0.98249978    -0.08600
C1364       C  0.37916999  0.16151702  0.01606041    -0.06000
C1365       C  0.35245429  0.14911867  0.03220933    -0.00100
C1366       C  0.32695815  0.13595758  0.01396359    -0.08500
C1367       C  0.29701052  0.12175387  0.02893576     0.61900
H1368       H  0.30935500  0.12775066  0.96660278     0.12500
H1369       H  0.39857181  0.17115772  0.03003965     0.12600
C1370       C  0.41092227  0.17559388  0.96678790     0.62100
F1371       F  0.27470931  0.11285171  0.00634689    -0.23100
F1372       F  0.28285781  0.14398045  0.04871798    -0.20400
F1373       F  0.30461214  0.09463557  0.04605341    -0.20100
F1374       F  0.40448194  0.20459696  0.95251847    -0.20100
F1375       F  0.42189050  0.15428809  0.94414685    -0.20500
F1376       F  0.43506261  0.18058111  0.98862543    -0.23100
C1377       C  0.24231159  0.21678676  0.87181062    -0.06000
C1378       C  0.27348753  0.22691858  0.87848594     0.00000
C1379       C  0.27892910  0.25913891  0.88774776    -0.08600
C1380       C  0.25364334  0.28072558  0.88600150    -0.06000
C1381       C  0.22283499  0.27107049  0.87727997    -0.00100
C1382       C  0.21657528  0.23802150  0.87200919    -0.08500
C1383       C  0.18332925  0.22479113  0.86636541     0.61900
H1384       H  0.23825076  0.19192123  0.86590420     0.12500
H1385       H  0.25790895  0.30567104  0.89148314     0.12600
C1386       C  0.31075095  0.27089851  0.90042035     0.62100
F1387       F  0.18330753  0.19209498  0.86120945    -0.23100
F1388       F  0.17014700  0.23899881  0.83993313    -0.20400
F1389       F  0.16451751  0.23054534  0.89277381    -0.20100
F1390       F  0.33255419  0.27324487  0.87585352    -0.20100
F1391       F  0.32177906  0.25001271  0.92336232    -0.20500
F1392       F  0.30833957  0.30074875  0.91446329    -0.23100
C1393       C  0.35100039  0.38314681  0.51484618    -0.06000
C1394       C  0.35649458  0.35381306  0.53023430     0.00000
C1395       C  0.36200115  0.32614023  0.51136559    -0.08600
C1396       C  0.36153730  0.32898540  0.47803340    -0.06000
C1397       C  0.35542683  0.35806088  0.46250014    -0.00100
C1398       C  0.35046616  0.38589097  0.48126430    -0.08500
C1399       C  0.34504149  0.41840996  0.46623928     0.61900
H1400       H  0.34668956  0.40400910  0.52948067     0.12500
H1401       H  0.36513491  0.30784046  0.46364253     0.12600
C1402       C  0.36700368  0.29320132  0.52590733     0.62100
F1403       F  0.34558408  0.44267926  0.48866845    -0.23100
F1404       F  0.31573104  0.41891032  0.45146766    -0.20400
F1405       F  0.36864262  0.42478847  0.44410752    -0.20100
F1406       F  0.34233572  0.28590876  0.54654711    -0.20100
F1407       F  0.39554355  0.29264761  0.54212808    -0.20500
F1408       F  0.36798320  0.26936124  0.50303610    -0.23100
C1409       C  0.39746203  0.24985958  0.71982619    -0.06000
C1410       C  0.37837175  0.27690314  0.72438620     0.00000
C1411       C  0.35873346  0.27876814  0.75190711    -0.08600
C1412       C  0.35965355  0.25376654  0.77415991    -0.06000
C1413       C  0.37885977  0.22687575  0.76977635    -0.00100
C1414       C  0.39816810  0.22469487  0.74212307    -0.08500
C1415       C  0.42005513  0.19654295  0.73647698     0.61900
H1416       H  0.41198378  0.24866447  0.69854325     0.12500
H1417       H  0.34486356  0.25482288  0.79527626     0.12600
C1418       C  0.33595160  0.30629307  0.75755325     0.62100
F1419       F  0.43942972  0.20123868  0.71017006    -0.23100
F1420       F  0.40229491  0.16913481  0.73124899    -0.20400
F1421       F  0.43937248  0.19221497  0.76271769    -0.20100
F1422       F  0.31700109  0.31057187  0.73106251    -0.20100
F1423       F  0.35287287  0.33403769  0.76370835    -0.20500
F1424       F  0.31607734  0.30070135  0.78330639    -0.23100
C1425       C  0.24826316  0.35808507  0.71784820    -0.06000
C1426       C  0.27424812  0.37876612  0.72236624     0.00000
C1427       C  0.27534740  0.39832198  0.74996169    -0.08600
C1428       C  0.25017923  0.39635714  0.77209296    -0.06000
C1429       C  0.22431645  0.37534736  0.76780409    -0.00100
C1430       C  0.22348977  0.35552012  0.74027096    -0.08500
C1431       C  0.19768983  0.33043112  0.73518566     0.61900
H1432       H  0.24799054  0.34312808  0.69678355     0.12500
H1433       H  0.25066318  0.41116021  0.79325545     0.12600
C1434       C  0.30265402  0.42145371  0.75597187     0.62100
F1435       F  0.20437851  0.31057180  0.70967145    -0.23100
F1436       F  0.16897936  0.34504602  0.72915349    -0.20400
F1437       F  0.19503873  0.31152161  0.76205485    -0.20100
F1438       F  0.30769662  0.44035509  0.72938436    -0.20100
F1439       F  0.32994934  0.40460466  0.76270766    -0.20500
F1440       F  0.29658140  0.44146528  0.78151177    -0.23100
C1441       C  0.12442408  0.15314522  0.51695872    -0.06000
C1442       C  0.15315258  0.14638338  0.53255479     0.00000
C1443       C  0.18081185  0.14072059  0.51398567    -0.08600
C1444       C  0.17856579  0.14213166  0.48063921    -0.06000
C1445       C  0.15017418  0.14978139  0.46498748    -0.00100
C1446       C  0.12233751  0.15502638  0.48343423    -0.08500
C1447       C  0.09051665  0.16233716  0.46815031     0.61900
H1448       H  0.10359554  0.15764774  0.53141847     0.12500
H1449       H  0.19964270  0.13827686  0.46636280     0.12600
C1450       C  0.21310186  0.13464792  0.52893930     0.62100
F1451       F  0.06597436  0.16161308  0.49015640    -0.23100
F1452       F  0.08376376  0.13991234  0.44485172    -0.20400
F1453       F  0.09130429  0.19250487  0.45474555    -0.20100
F1454       F  0.21282526  0.10528407  0.54402342    -0.20100
F1455       F  0.22024328  0.15847119  0.55069659    -0.20500
F1456       F  0.23723644  0.13433149  0.50647888    -0.23100
C1457       C  0.14828454  0.25499318  0.76870742    -0.06000
C1458       C  0.12102369  0.27375340  0.77165935     0.00000
C1459       C  0.09541278  0.26931736  0.75026326    -0.08600
C1460       C  0.09783350  0.24529009  0.72688537    -0.06000
C1461       C  0.12486685  0.22599056  0.72460211    -0.00100
C1462       C  0.15087845  0.23125864  0.74532578    -0.08500
C1463       C  0.18157069  0.21254533  0.74228928     0.61900
H1464       H  0.16795098  0.25951703  0.78469573     0.12500
H1465       H  0.07847564  0.24109549  0.71039199     0.12600
C1466       C  0.06549380  0.28920444  0.75267813     0.62100
F1467       F  0.20537845  0.22504793  0.76140794    -0.23100
F1468       F  0.19225076  0.21338698  0.71110133    -0.20400
F1469       F  0.17639772  0.18118552  0.75132384    -0.20100
F1470       F  0.07244335  0.32081808  0.74590742    -0.20100
F1471       F  0.05310038  0.28702819  0.78314920    -0.20500
F1472       F  0.04241365  0.27893597  0.73149786    -0.23100
C1473       C  0.24557410  0.14979383  0.73079486    -0.06000
C1474       C  0.22651515  0.12247872  0.72678688     0.00000
C1475       C  0.23112020  0.09568827  0.74691723    -0.08600
C1476       C  0.25560581  0.09698599  0.76991815    -0.06000
C1477       C  0.27488131  0.12429946  0.77353338    -0.00100
C1478       C  0.26911516  0.15151600  0.75443091    -0.08500
C1479       C  0.28729424  0.18253424  0.75954978     0.61900
H1480       H  0.24148736  0.17014257  0.71541315     0.12500
H1481       H  0.25987212  0.07671449  0.78533865     0.12600
C1482       C  0.21076980  0.06577444  0.74361902     0.62100
F1483       F  0.27559725  0.20707440  0.74094837    -0.23100
F1484       F  0.31884038  0.17818399  0.75177170    -0.20400
F1485       F  0.28493086  0.19183928  0.79109742    -0.20100
F1486       F  0.21267740  0.05427226  0.71277921    -0.20100
F1487       F  0.17948795  0.07276273  0.75065177    -0.20500
F1488       F  0.22045689  0.04181798  0.76407668    -0.23100
C1489       C  0.25551557  0.22284392  0.63971959    -0.06000
C1490       C  0.22772196  0.22804169  0.62215949     0.00000
C1491       C  0.22482952  0.25632862  0.60385642    -0.08600
C1492       C  0.24995235  0.27870063  0.60418670    -0.06000
C1493       C  0.27772369  0.27366533  0.62193825    -0.00100
C1494       C  0.28058476  0.24521616  0.64023681    -0.08500
C1495       C  0.30912888  0.23884377  0.66140576     0.61900
H1496       H  0.25716123  0.20113514  0.65363147     0.12500
H1497       H  0.24805601  0.30052239  0.59050111     0.12600
C1498       C  0.19580435  0.26263248  0.58342848     0.62100
F1499       F  0.30504444  0.21164738  0.67976392    -0.23100
F1500       F  0.31375013  0.26432141  0.68187810    -0.20400
F1501       F  0.33598237  0.23450998  0.64294913    -0.20100
F1502       F  0.16973374  0.26817947  0.60267666    -0.20100
F1503       F  0.18977996  0.23654940  0.56402048    -0.20500
F1504       F  0.20003216  0.28909122  0.56405812    -0.23100
C1505       C  0.35227254  0.52136665  0.61994227    -0.06000
C1506       C  0.35670917  0.53643294  0.64953767     0.00000
C1507       C  0.36039878  0.51759880  0.67734293    -0.08600
C1508       C  0.35927098  0.48427130  0.67436885    -0.06000
C1509       C  0.35429656  0.46900121  0.64494301    -0.00100
C1510       C  0.35111055  0.48780709  0.61702498    -0.08500
C1511       C  0.34689336  0.47285137  0.58433986     0.61900
H1512       H  0.34928092  0.53624705  0.59905767     0.12500
H1513       H  0.36151507  0.46969584  0.69555199     0.12600
C1514       C  0.36419320  0.53229478  0.71034413     0.62100
F1515       F  0.34941349  0.49535820  0.56027864    -0.23100
F1516       F  0.31720081  0.45871537  0.58220014    -0.20400
F1517       F  0.37003539  0.45009014  0.57927019    -0.20100
F1518       F  0.34002694  0.55379266  0.71606897    -0.20100
F1519       F  0.39323411  0.54778834  0.71245497    -0.20500
F1520       F  0.36300625  0.50947455  0.73420359    -0.23100
C1521       C  0.37941884  0.65340978  0.48102146    -0.06000
C1522       C  0.35037576  0.64667774  0.46584132     0.00000
C1523       C  0.32346837  0.63823660  0.48471754    -0.08600
C1524       C  0.32670112  0.63756912  0.51799525    -0.06000
C1525       C  0.35524269  0.64584361  0.53321711    -0.00100
C1526       C  0.38240144  0.65324949  0.51445472    -0.08500
C1527       C  0.41437727  0.66113902  0.52934824     0.61900
H1528       H  0.39974054  0.65973466  0.46640733     0.12500
H1529       H  0.30620753  0.63197946  0.53263649     0.12600
C1530       C  0.29086112  0.63163157  0.47038204     0.62100
F1531       F  0.43859586  0.66089942  0.50699430    -0.23100
F1532       F  0.42161345  0.63882509  0.55248949    -0.20400
F1533       F  0.41355309  0.69127122  0.54285780    -0.20100
F1534       F  0.29169230  0.60394973  0.45239899    -0.20100
F1535       F  0.28182539  0.65705373  0.45146066    -0.20500
F1536       F  0.26769256  0.62753280  0.49350792    -0.23100
C1537       C  0.15605198  0.51728619  0.82399719    -0.06000
C1538       C  0.15130152  0.53283309  0.85315754     0.00000
C1539       C  0.14716415  0.51453769  0.88126442    -0.08600
C1540       C  0.14772245  0.48082815  0.87892617    -0.06000
C1541       C  0.15236199  0.46535469  0.84952531    -0.00100
C1542       C  0.15719623  0.48394318  0.82159267    -0.08500
C1543       C  0.16515472  0.46903330  0.78945450     0.61900
H1544       H  0.15963448  0.53175565  0.80289507     0.12500
H1545       H  0.14443177  0.46627982  0.90000149     0.12600
C1546       C  0.14138681  0.53044992  0.91321392     0.62100
F1547       F  0.17401957  0.49179869  0.76715125    -0.23100
F1548       F  0.13902448  0.45284587  0.77754432    -0.20400
F1549       F  0.19023122  0.44814774  0.79278653    -0.20100
F1550       F  0.11598298  0.55110881  0.91091871    -0.20100
F1551       F  0.16814154  0.54740123  0.92238105    -0.20500
F1552       F  0.13452038  0.50831487  0.93678307    -0.23100
C1553       C  0.14814413  0.62260398  0.97971955    -0.06000
C1554       C  0.14260513  0.65171094  0.96403710     0.00000
C1555       C  0.13682404  0.67957692  0.98245398    -0.08600
C1556       C  0.13822718  0.67731676  0.01580022    -0.06000
C1557       C  0.14524783  0.64855190  0.03162969    -0.00100
C1558       C  0.14948009  0.62034697  0.01319956    -0.08500
C1559       C  0.15539662  0.58791424  0.02826859     0.61900
H1560       H  0.15227632  0.60155946  0.96532921     0.12500
H1561       H  0.13479617  0.69869172  0.02984224     0.12600
C1562       C  0.13040617  0.71202427  0.96740605     0.62100
F1563       F  0.15387990  0.56343613  0.00609324    -0.23100
F1564       F  0.13264430  0.58176003  0.05132608    -0.20400
F1565       F  0.18529931  0.58740533  0.04180730    -0.20100
F1566       F  0.10200389  0.71089405  0.95094578    -0.20100
F1567       F  0.15485633  0.72024937  0.94684610    -0.20500
F1568       F  0.12804344  0.73610019  0.98991829    -0.23100
C1569       C  0.28407045  0.63765648  0.75575416    -0.06000
C1570       C  0.27733089  0.62357690  0.72617383     0.00000
C1571       C  0.24803124  0.60715713  0.72195144    -0.08600
C1572       C  0.22597253  0.60679959  0.74720606    -0.06000
C1573       C  0.23216949  0.62190986  0.77650589    -0.00100
C1574       C  0.26212343  0.63730590  0.78107276    -0.08500
C1575       C  0.27083016  0.65453711  0.81179210     0.61900
H1576       H  0.30670494  0.64980214  0.75861856     0.12500
H1577       H  0.20326588  0.59488259  0.74403467     0.12600
C1578       C  0.24008510  0.58956526  0.69126974     0.62100
F1579       F  0.30005965  0.66978951  0.80977706    -0.23100
F1580       F  0.27244593  0.63289013  0.83660419    -0.20400
F1581       F  0.24836409  0.67751079  0.81848878    -0.20100
F1582       F  0.26479741  0.56956351  0.68295876    -0.20100
F1583       F  0.23498052  0.61131717  0.66707339    -0.20500
F1584       F  0.21292320  0.57095980  0.69433562    -0.23100
C1585       C  0.38175269  0.98375756  0.85625075    -0.06000
C1586       C  0.35248653  0.96748068  0.85470158     0.00000
C1587       C  0.32393077  0.98527469  0.85344799    -0.08600
C1588       C  0.32585006  0.01874714  0.85279531    -0.06000
C1589       C  0.35500925  0.03516595  0.85348575    -0.00100
C1590       C  0.38353461  0.01751102  0.85629084    -0.08500
C1591       C  0.41543697  0.03405187  0.86053168     0.61900
H1592       H  0.40327648  0.96973416  0.85737772     0.12500
H1593       H  0.30425679  0.03256105  0.85089547     0.12600
C1594       C  0.29145369  0.96920667  0.85140548     0.62100
F1595       F  0.43917328  0.01250823  0.86776059    -0.23100
F1596       F  0.41360645  0.05586016  0.88524967    -0.20400
F1597       F  0.42397211  0.04976656  0.83284097    -0.20100
F1598       F  0.28520677  0.95261548  0.87921360    -0.20100
F1599       F  0.29069380  0.94839209  0.82583189    -0.20500
F1600       F  0.26730600  0.99110554  0.84723889    -0.23100
C1601       C  0.36729710  0.82421589  0.98019079    -0.06000
C1602       C  0.35733634  0.85195686  0.96442476     0.00000
C1603       C  0.34913726  0.87932130  0.98258275    -0.08600
C1604       C  0.35125328  0.87769317  0.01600252    -0.06000
C1605       C  0.36025172  0.84958442  0.03183190    -0.00100
C1606       C  0.36821830  0.82210378  0.01355886    -0.08500
C1607       C  0.37583514  0.78998436  0.02870870     0.61900
H1608       H  0.37308795  0.80345069  0.96598663     0.12500
H1609       H  0.34488839  0.89828629  0.03020757     0.12600
C1610       C  0.33800679  0.91009424  0.96712360     0.62100
F1611       F  0.37910599  0.76598598  0.00622175    -0.23100
F1612       F  0.35155210  0.78094540  0.04913455    -0.20400
F1613       F  0.40409090  0.79209201  0.04532018    -0.20100
F1614       F  0.30813252  0.90557094  0.95418466    -0.20100
F1615       F  0.35906724  0.91928930  0.94345761    -0.20500
F1616       F  0.33603835  0.93488098  0.98888668    -0.23100
C1617       C  0.40463651  0.77561533  0.75107947    -0.06000
C1618       C  0.37885323  0.77591831  0.77234681     0.00000
C1619       C  0.35375958  0.75343167  0.76870743    -0.08600
C1620       C  0.35599405  0.73061806  0.74438306    -0.06000
C1621       C  0.38201221  0.72978674  0.72352259    -0.00100
C1622       C  0.40681099  0.75265530  0.72661836    -0.08500
C1623       C  0.43586128  0.75212262  0.70513597     0.61900
H1624       H  0.42335452  0.79322437  0.75418762     0.12500
H1625       H  0.33722657  0.71301304  0.74141728     0.12600
C1626       C  0.32436592  0.75371006  0.78986918     0.62100
F1627       F  0.42717316  0.75886087  0.67414534    -0.23100
F1628       F  0.44975582  0.72228221  0.70624395    -0.20400
F1629       F  0.45840625  0.77452916  0.71435634    -0.20100
F1630       F  0.31205990  0.78424935  0.79142913    -0.20100
F1631       F  0.33215258  0.74351285  0.82015443    -0.20500
F1632       F  0.30072290  0.73366617  0.77834614    -0.23100
C1633       C  0.25143796  0.77613414  0.85310034    -0.06000
C1634       C  0.27611832  0.77377964  0.87540610     0.00000
C1635       C  0.27591252  0.74809712  0.89750452    -0.08600
C1636       C  0.25069147  0.72578457  0.89643099    -0.06000
C1637       C  0.22594110  0.72836217  0.87422813    -0.00100
C1638       C  0.22646347  0.75373686  0.85181822    -0.08500
C1639       C  0.20149261  0.75675453  0.82587874     0.61900
H1640       H  0.25208547  0.79569954  0.83621405     0.12500
H1641       H  0.25011304  0.70593968  0.91298140     0.12600
C1642       C  0.30173444  0.74434715  0.92241500     0.62100
F1643       F  0.20960218  0.77988924  0.80371416    -0.23100
F1644       F  0.17268531  0.76510076  0.83925891    -0.20400
F1645       F  0.19824020  0.72808421  0.80976266    -0.20100
F1646       F  0.30570679  0.77263162  0.93907689    -0.20100
F1647       F  0.32999355  0.73627058  0.90774649    -0.20500
F1648       F  0.29434241  0.72058021  0.94419870    -0.23100
C1649       C  0.15069853  0.88539520  0.51747424    -0.06000
C1650       C  0.15366418  0.85539394  0.53223325     0.00000
C1651       C  0.15624946  0.82750693  0.51309682    -0.08600
C1652       C  0.15384636  0.83054648  0.48001024    -0.06000
C1653       C  0.15077310  0.86032641  0.46515974    -0.00100
C1654       C  0.14970876  0.88844323  0.48398081    -0.08500
C1655       C  0.14747454  0.92131051  0.46894484     0.61900
H1656       H  0.14956047  0.90645758  0.53241282     0.12500
H1657       H  0.15549530  0.80943044  0.46517303     0.12600
C1658       C  0.16334838  0.79472035  0.52703855     0.62100
F1659       F  0.14232294  0.94485652  0.49152684    -0.23100
F1660       F  0.12258998  0.92194818  0.44750508    -0.20400
F1661       F  0.17551046  0.92849154  0.45322483    -0.20100
F1662       F  0.13696540  0.78299527  0.54295545    -0.20100
F1663       F  0.18872043  0.79689930  0.54781388    -0.20500
F1664       F  0.17137133  0.77278967  0.50369492    -0.23100
C1665       C  0.15356771  0.98307398  0.62059961    -0.06000
C1666       C  0.14687174  0.96715116  0.64931433     0.00000
C1667       C  0.13980104  0.98525296  0.67707958    -0.08600
C1668       C  0.13937247  0.01867181  0.67476187    -0.06000
C1669       C  0.14710789  0.03463230  0.64639364    -0.00100
C1670       C  0.15418926  0.01665156  0.61863896    -0.08500
C1671       C  0.16245850  0.03251446  0.58712854     0.61900
H1672       H  0.15922512  0.96889284  0.59979233     0.12500
H1673       H  0.13437438  0.03282155  0.69576006     0.12600
C1674       C  0.13455894  0.96987642  0.70957801     0.62100
F1675       F  0.16331730  0.01065102  0.56236751    -0.23100
F1676       F  0.19207050  0.04685423  0.58909156    -0.20400
F1677       F  0.13997888  0.05528133  0.57976762    -0.20100
F1678       F  0.15956176  0.94982079  0.71666755    -0.20100
F1679       F  0.10640663  0.95265876  0.70961439    -0.20500
F1680       F  0.13273191  0.99236949  0.73371341    -0.23100
C1681       C  0.23053905  0.75148310  0.60104506    -0.06000
C1682       C  0.23475650  0.77892818  0.61989744     0.00000
C1683       C  0.26346621  0.78285063  0.63730225    -0.08600
C1684       C  0.28604670  0.75826636  0.63642213    -0.06000
C1685       C  0.28134612  0.73029539  0.61852373    -0.00100
C1686       C  0.25369671  0.72737087  0.59934836    -0.08500
C1687       C  0.24896567  0.69968318  0.57632499     0.61900
H1688       H  0.20876938  0.74905392  0.58751327     0.12500
H1689       H  0.30749570  0.76041590  0.65049895     0.12600
C1690       C  0.26996096  0.81210614  0.65786116     0.62100
F1691       F  0.22399553  0.70509437  0.55565113    -0.23100
F1692       F  0.24236122  0.67190999  0.59294795    -0.20400
F1693       F  0.27610663  0.69558083  0.55815281    -0.20100
F1694       F  0.24543151  0.81608934  0.67940136    -0.20100
F1695       F  0.27278552  0.83896460  0.63885938    -0.20500
F1696       F  0.29786641  0.80936844  0.67500931    -0.23100
C1697       C  0.14255352  0.74397341  0.71614427    -0.06000
C1698       C  0.12549782  0.77203019  0.72210265     0.00000
C1699       C  0.10693013  0.77453178  0.75017458    -0.08600
C1700       C  0.10772734  0.74936087  0.77226821    -0.06000
C1701       C  0.12563429  0.72167021  0.76684781    -0.00100
C1702       C  0.14287031  0.71848497  0.73786380    -0.08500
C1703       C  0.16228821  0.68898973  0.72990363     0.61900
H1704       H  0.15621343  0.74242104  0.69433071     0.12500
H1705       H  0.09433575  0.75120448  0.79422882     0.12600
C1706       C  0.08566538  0.80304799  0.75656186     0.62100
F1707       F  0.17918522  0.69255276  0.70176984    -0.23100
F1708       F  0.14233433  0.66284432  0.72631989    -0.20400
F1709       F  0.18389905  0.68319576  0.75392170    -0.20100
F1710       F  0.06694433  0.80897184  0.73019228    -0.20100
F1711       F  0.10397916  0.82974967  0.76328621    -0.20500
F1712       F  0.06561806  0.79773951  0.78223444    -0.23100
C1713       C  0.25865526  0.89172608  0.71874589    -0.06000
C1714       C  0.22844099  0.87937483  0.72654945     0.00000
C1715       C  0.22298246  0.86784762  0.75804651    -0.08600
C1716       C  0.24834334  0.86805901  0.77977118    -0.06000
C1717       C  0.27866863  0.87970158  0.77171837    -0.00100
C1718       C  0.28380720  0.89252159  0.74081254    -0.08500
C1719       C  0.31529183  0.90765119  0.73109027     0.61900
H1720       H  0.26255621  0.90079187  0.69489335     0.12500
H1721       H  0.24473728  0.85847252  0.80346387     0.12600
C1722       C  0.19105518  0.85447207  0.76898480     0.62100
F1723       F  0.31312168  0.92353246  0.70226344    -0.23100
F1724       F  0.33815305  0.88429058  0.72793420    -0.20400
F1725       F  0.32478953  0.92969695  0.75380631    -0.20100
F1726       F  0.18218326  0.82919946  0.74964528    -0.20100
F1727       F  0.16830114  0.87812440  0.76796360    -0.20500
F1728       F  0.19197740  0.84331231  0.79999473    -0.23100
C1729       C  0.51889834  0.35646935  0.61634667    -0.06000
C1730       C  0.53547997  0.36129564  0.64498257     0.00000
C1731       C  0.51801345  0.36755876  0.67336175    -0.08600
C1732       C  0.48464362  0.36703932  0.67212570    -0.06000
C1733       C  0.46803245  0.36040215  0.64390676    -0.00100
C1734       C  0.48539920  0.35636722  0.61515536    -0.08500
C1735       C  0.46892089  0.35214976  0.58327930     0.61900
H1736       H  0.53247435  0.35207879  0.59484136     0.12500
H1737       H  0.47111263  0.37056000  0.69379946     0.12600
C1738       C  0.53413840  0.37320621  0.70533718     0.62100
F1739       F  0.48980793  0.35645535  0.55810350    -0.23100
F1740       F  0.44493934  0.37437232  0.58011889    -0.20400
F1741       F  0.45622897  0.32167074  0.58110052    -0.20100
F1742       F  0.55128765  0.40150882  0.70445548    -0.20100
F1743       F  0.55420467  0.34810842  0.71220669    -0.20500
F1744       F  0.51245977  0.37550654  0.73006672    -0.23100
C1745       C  0.62881352  0.33230791  0.51042731    -0.06000
C1746       C  0.64610548  0.35593802  0.52676111     0.00000
C1747       C  0.66171528  0.38027038  0.50886217    -0.08600
C1748       C  0.66210733  0.37790836  0.47540105    -0.06000
C1749       C  0.64684006  0.35279388  0.45900160    -0.00100
C1750       C  0.62839254  0.33031995  0.47698143    -0.08500
C1751       C  0.60859606  0.30375733  0.46178176     0.61900
H1752       H  0.61643318  0.31431216  0.52426738     0.12500
H1753       H  0.67523107  0.39557657  0.46180747     0.12600
C1754       C  0.67792568  0.40882905  0.52450634     0.62100
F1755       F  0.59169654  0.28617439  0.48412320    -0.23100
F1756       F  0.62811447  0.28273930  0.44565356    -0.20400
F1757       F  0.58669953  0.31681575  0.44107875    -0.20100
F1758       F  0.70626329  0.39954001  0.53814906    -0.20100
F1759       F  0.65828745  0.42171740  0.54757962    -0.20500
F1760       F  0.68467013  0.43275607  0.50269619    -0.23100
C1761       C  0.51827175  0.17963974  0.85999586    -0.06000
C1762       C  0.53390357  0.15129511  0.85168689     0.00000
C1763       C  0.51570545  0.12296866  0.84706961    -0.08600
C1764       C  0.48232954  0.12486377  0.84817639    -0.06000
C1765       C  0.46665673  0.15369442  0.85459343    -0.00100
C1766       C  0.48501875  0.18150330  0.86180406    -0.08500
C1767       C  0.47009732  0.21348929  0.87030521     0.61900
H1768       H  0.53245896  0.20092093  0.86409648     0.12500
H1769       H  0.46809175  0.10373635  0.84339923     0.12600
C1770       C  0.53110887  0.09074428  0.84142371     0.62100
F1771       F  0.49260984  0.23750051  0.87395953    -0.23100
F1772       F  0.45381380  0.21081788  0.89883820    -0.20400
F1773       F  0.44953806  0.22290624  0.84648153    -0.20100
F1774       F  0.55491501  0.08589355  0.86354247    -0.20100
F1775       F  0.54374330  0.08957244  0.81103406    -0.20500
F1776       F  0.50942090  0.06588406  0.84440679    -0.23100
C1777       C  0.67840420  0.14220390  0.97505840    -0.06000
C1778       C  0.64919584  0.14617409  0.95957533     0.00000
C1779       C  0.62106485  0.14913343  0.97806075    -0.08600
C1780       C  0.62359941  0.14925795  0.01159094    -0.06000
C1781       C  0.65304766  0.14613039  0.02693170    -0.00100
C1782       C  0.68099272  0.14237293  0.00836670    -0.08500
C1783       C  0.71377255  0.14015934  0.02338225     0.61900
H1784       H  0.69965935  0.14009488  0.96067003     0.12500
H1785       H  0.60256166  0.15216660  0.02616575     0.12600
C1786       C  0.58851470  0.15152774  0.96271434     0.62100
F1787       F  0.73778254  0.14112776  0.00081108    -0.23100
F1788       F  0.71642227  0.11169982  0.03984162    -0.20400
F1789       F  0.71854822  0.16553439  0.04399604    -0.20100
F1790       F  0.58480487  0.12756513  0.94026394    -0.20100
F1791       F  0.58521588  0.18095852  0.94819528    -0.20500
F1792       F  0.56433714  0.14826105  0.98490333    -0.23100
C1793       C  0.60458528  0.22552081  0.74266824    -0.06000
C1794       C  0.62422843  0.23071848  0.76925924     0.00000
C1795       C  0.64348862  0.25874029  0.77049104    -0.08600
C1796       C  0.64185002  0.28063048  0.74520856    -0.06000
C1797       C  0.62236319  0.27533049  0.71863765    -0.00100
C1798       C  0.60328612  0.24734369  0.71719760    -0.08500
C1799       C  0.58122279  0.24070821  0.68936219     0.61900
H1800       H  0.59022799  0.20395607  0.74193612     0.12500
H1801       H  0.65641501  0.30207022  0.74569002     0.12600
C1802       C  0.66662503  0.26526495  0.79753720     0.62100
F1803       F  0.56140642  0.21480136  0.69518750    -0.23100
F1804       F  0.59886045  0.23403457  0.66239356    -0.20400
F1805       F  0.56233495  0.26702894  0.68376003    -0.20100
F1806       F  0.68633770  0.23928231  0.80159268    -0.20100
F1807       F  0.65003147  0.27101963  0.82536821    -0.20500
F1808       F  0.68568519  0.29173358  0.79160630    -0.23100
C1809       C  0.98132070  0.35129353  0.87264231    -0.06000
C1810       C  0.96659307  0.35841425  0.84352436     0.00000
C1811       C  0.98572812  0.36547647  0.81644251    -0.08600
C1812       C  0.01888295  0.36475191  0.81967214    -0.06000
C1813       C  0.03361446  0.35662254  0.84846309    -0.00100
C1814       C  0.01458544  0.35023836  0.87568341    -0.08500
C1815       C  0.02902656  0.34254252  0.90781610     0.61900
H1816       H  0.96640984  0.34588073  0.89301749     0.12500
H1817       H  0.03377437  0.36940091  0.79909622     0.12600
C1818       C  0.97167712  0.37223925  0.78376750     0.62100
F1819       F  0.00639337  0.34194158  0.93180603    -0.23100
F1820       F  0.05153643  0.36546331  0.91564215    -0.20400
F1821       F  0.04302099  0.31280612  0.90667593    -0.20100
F1822       F  0.95541759  0.40082625  0.78443784    -0.20100
F1823       F  0.95126362  0.34770780  0.77505291    -0.20500
F1824       F  0.99484955  0.37471057  0.76041551    -0.23100
C1825       C  0.82862860  0.36353603  0.97646294    -0.06000
C1826       C  0.85676615  0.35652276  0.95994809     0.00000
C1827       C  0.88486545  0.35051069  0.97766306    -0.08600
C1828       C  0.88317938  0.35076328  0.01123708    -0.06000
C1829       C  0.85466818  0.35669043  0.02767622    -0.00100
C1830       C  0.82676341  0.36349512  0.00983485    -0.08500
C1831       C  0.79454161  0.36940952  0.02531837     0.61900
H1832       H  0.80734968  0.36803138  0.96280026     0.12500
H1833       H  0.90425726  0.34567548  0.02504063     0.12600
C1834       C  0.91659938  0.34404725  0.96164769     0.62100
F1835       F  0.77047455  0.37226201  0.00308656    -0.23100
F1836       F  0.79550509  0.39755998  0.04258493    -0.20400
F1837       F  0.78657959  0.34415172  0.04511777    -0.20100
F1838       F  0.92295836  0.36745187  0.93921793    -0.20100
F1839       F  0.91593189  0.31440003  0.94707849    -0.20500
F1840       F  0.94137182  0.34412148  0.98328928    -0.23100
C1841       C  0.77918367  0.36029840  0.74166990    -0.06000
C1842       C  0.77446663  0.38040740  0.76806124     0.00000
C1843       C  0.74683562  0.39958573  0.76953427    -0.08600
C1844       C  0.72452223  0.39713025  0.74470295    -0.06000
C1845       C  0.72930667  0.37687591  0.71846398    -0.00100
C1846       C  0.75715935  0.35814951  0.71673957    -0.08500
C1847       C  0.76327204  0.33511540  0.68940340     0.61900
H1848       H  0.80035750  0.34576189  0.74090491     0.12500
H1849       H  0.70304602  0.41123195  0.74547446     0.12600
C1850       C  0.74120429  0.42320214  0.79643221     0.62100
F1851       F  0.78983024  0.31652201  0.69464353    -0.23100
F1852       F  0.76821610  0.35199165  0.66151324    -0.20400
F1853       F  0.73752504  0.31476987  0.68578266    -0.20100
F1854       F  0.71536633  0.44258714  0.79046574    -0.20100
F1855       F  0.76759683  0.44274147  0.80010953    -0.20500
F1856       F  0.73533880  0.40694336  0.82450765    -0.23100
C1857       C  0.78368062  0.24568499  0.87674286    -0.06000
C1858       C  0.77406696  0.27770088  0.87369448     0.00000
C1859       C  0.74089511  0.28437080  0.87240613    -0.08600
C1860       C  0.71933439  0.25864011  0.87220340    -0.06000
C1861       C  0.72898543  0.22657793  0.87359715    -0.00100
C1862       C  0.76192688  0.21997629  0.87715680    -0.08500
C1863       C  0.77462666  0.18631998  0.88176390     0.61900
H1864       H  0.80879836  0.24068879  0.87834279     0.12500
H1865       H  0.69425852  0.26364057  0.87030583     0.12600
C1866       C  0.72748458  0.31812149  0.87099850     0.62100
F1867       F  0.80680499  0.18631175  0.88852125    -0.23100
F1868       F  0.77018868  0.16858375  0.85429573    -0.20400
F1869       F  0.75916991  0.17174981  0.90706212    -0.20100
F1870       F  0.73634480  0.33267001  0.84272825    -0.20100
F1871       F  0.73838210  0.33582467  0.89664745    -0.20500
F1872       F  0.69461804  0.31834650  0.87235247    -0.23100
C1873       C  0.87949722  0.15825340  0.51073468    -0.06000
C1874       C  0.85194435  0.14723051  0.52635907     0.00000
C1875       C  0.82580303  0.13610859  0.50790025    -0.08600
C1876       C  0.82856905  0.13611364  0.47459450    -0.06000
C1877       C  0.85570233  0.14786419  0.45895959    -0.00100
C1878       C  0.88184014  0.15909120  0.47726299    -0.08500
C1879       C  0.91220524  0.17162322  0.46189959     0.61900
H1880       H  0.89908988  0.16688953  0.52506831     0.12500
H1881       H  0.80874967  0.12799606  0.46027822     0.12600
C1882       C  0.79435354  0.12570300  0.52273847     0.62100
F1883       F  0.93592655  0.17687297  0.48413132    -0.23100
F1884       F  0.90650850  0.20037575  0.44681391    -0.20400
F1885       F  0.92332504  0.14965876  0.43998482    -0.20100
F1886       F  0.78322551  0.14934338  0.54285967    -0.20100
F1887       F  0.79840904  0.09764760  0.53957484    -0.20500
F1888       F  0.77117160  0.12012835  0.50001930    -0.23100
C1889       C  0.98226714  0.12773273  0.65569505    -0.06000
C1890       C  0.96748864  0.15175125  0.63757205     0.00000
C1891       C  0.98716685  0.17348851  0.62024507    -0.08600
C1892       C  0.02044591  0.17087269  0.62287694    -0.06000
C1893       C  0.03518416  0.14806337  0.64251255    -0.00100
C1894       C  0.01553378  0.12557146  0.65888545    -0.08500
C1895       C  0.02895638  0.09954793  0.68019914     0.61900
H1896       H  0.96733062  0.11094542  0.66847747     0.12500
H1897       H  0.03535985  0.18778348  0.61024996     0.12600
C1898       C  0.97372888  0.20015756  0.59973835     0.62100
F1899       F  0.00572873  0.07829156  0.69041676    -0.23100
F1900       F  0.04246771  0.11316995  0.70702112    -0.20400
F1901       F  0.05150064  0.08217429  0.66373322    -0.20100
F1902       F  0.95514745  0.22012014  0.61814360    -0.20100
F1903       F  0.95578726  0.18720815  0.57530178    -0.20500
F1904       F  0.99734348  0.21880964  0.58600063    -0.23100
C1905       C  0.74700490  0.22272174  0.63340130    -0.06000
C1906       C  0.77342730  0.22704433  0.61336557     0.00000
C1907       C  0.77414352  0.25317243  0.59192679    -0.08600
C1908       C  0.74894954  0.27518011  0.59257364    -0.06000
C1909       C  0.72297945  0.27140673  0.61336088    -0.00100
C1910       C  0.72171295  0.24454658  0.63391115    -0.08500
C1911       C  0.69445363  0.23956665  0.65718053     0.61900
H1912       H  0.74671738  0.20233281  0.64929028     0.12500
H1913       H  0.74953957  0.29586224  0.57708461     0.12600
C1914       C  0.80103103  0.25747657  0.56811595     0.62100
F1915       F  0.69933347  0.21352013  0.67681345    -0.23100
F1916       F  0.66658726  0.23433090  0.64057846    -0.20400
F1917       F  0.69121592  0.26624262  0.67632984    -0.20100
F1918       F  0.80597404  0.22922199  0.55172908    -0.20100
F1919       F  0.82856532  0.26611612  0.58389550    -0.20500
F1920       F  0.79435494  0.28099530  0.54598480    -0.23100
C1921       C  0.75403019  0.11470625  0.77276138    -0.06000
C1922       C  0.72305399  0.12343339  0.76381464     0.00000
C1923       C  0.71728977  0.13123699  0.73130594    -0.08600
C1924       C  0.74299888  0.13120388  0.70980168    -0.06000
C1925       C  0.77420355  0.12347855  0.71896182    -0.00100
C1926       C  0.77968712  0.11440719  0.75116057    -0.08500
C1927       C  0.81214777  0.10428257  0.76325416     0.61900
H1928       H  0.75823348  0.10829604  0.79733859     0.12500
H1929       H  0.73877663  0.13790498  0.68531323     0.12600
C1930       C  0.68459013  0.14023510  0.71883291     0.62100
F1931       F  0.81102437  0.09377921  0.79451164    -0.23100
F1932       F  0.83305730  0.12990649  0.76206662    -0.20400
F1933       F  0.82353880  0.07938776  0.74487731    -0.20100
F1934       F  0.67369674  0.16704007  0.73463419    -0.20100
F1935       F  0.66359765  0.11502160  0.72315025    -0.20500
F1936       F  0.68499379  0.14719850  0.68659304    -0.23100
C1937       C  0.86070495  0.22465149  0.74598803    -0.06000
C1938       C  0.87805769  0.23057991  0.71797707     0.00000
C1939       C  0.89491581  0.25995848  0.71476985    -0.08600
C1940       C  0.89342132  0.28229138  0.73983673    -0.06000
C1941       C  0.87585472  0.27635882  0.76774934    -0.00100
C1942       C  0.85892572  0.24696034  0.77085826    -0.08500
C1943       C  0.83785770  0.23923230  0.79943903     0.61900
H1944       H  0.84777578  0.20229180  0.74804754     0.12500
H1945       H  0.90613021  0.30478031  0.73781645     0.12600
C1946       C  0.91498840  0.26772174  0.68560612     0.62100
F1947       F  0.82055953  0.21128386  0.79513539    -0.23100
F1948       F  0.81642244  0.26367617  0.80423259    -0.20400
F1949       F  0.85624624  0.23527352  0.82637908    -0.20100
F1950       F  0.89565846  0.27166412  0.65933325    -0.20100
F1951       F  0.93620735  0.24325542  0.68000494    -0.20500
F1952       F  0.93236498  0.29566826  0.68949574    -0.23100
C1953       C  0.52161293  0.62349490  0.65912051    -0.06000
C1954       C  0.53759901  0.64591304  0.63974127     0.00000
C1955       C  0.51916594  0.66583219  0.61943492    -0.08600
C1956       C  0.48589558  0.66471544  0.62206568    -0.06000
C1957       C  0.46999760  0.64444878  0.64359797    -0.00100
C1958       C  0.48820569  0.62199172  0.66121480    -0.08500
C1959       C  0.47309618  0.59645630  0.68228420     0.61900
H1960       H  0.53559852  0.60751944  0.67361092     0.12500
H1961       H  0.47195603  0.68098180  0.60788793     0.12600
C1962       C  0.53377829  0.68908523  0.59553567     0.62100
F1963       F  0.44968632  0.58026769  0.66558250    -0.23100
F1964       F  0.46017232  0.61035600  0.70920230    -0.20400
F1965       F  0.49501931  0.57406367  0.69223045    -0.20100
F1966       F  0.55335445  0.67277757  0.57469721    -0.20100
F1967       F  0.55087406  0.71251600  0.61140114    -0.20500
F1968       F  0.51103000  0.70429669  0.57735316    -0.23100
C1969       C  0.68078310  0.51888032  0.63682306    -0.06000
C1970       C  0.65184070  0.53454711  0.64244499     0.00000
C1971       C  0.62354261  0.51596685  0.64539368    -0.08600
C1972       C  0.62575040  0.48240277  0.64377556    -0.06000
C1973       C  0.65488389  0.46696625  0.63906304    -0.00100
C1974       C  0.68296296  0.48547647  0.63525009    -0.08500
C1975       C  0.71544549  0.47023748  0.63114456     0.61900
H1976       H  0.70226234  0.53311644  0.63459965     0.12500
H1977       H  0.60462761  0.46773538  0.64683038     0.12600
C1978       C  0.59111924  0.53102261  0.65013117     0.62100
F1979       F  0.73975345  0.49269946  0.63136324    -0.23100
F1980       F  0.71678155  0.45424629  0.60234543    -0.20400
F1981       F  0.72095139  0.44902977  0.65576221    -0.20100
F1982       F  0.58632702  0.55450533  0.62749139    -0.20100
F1983       F  0.58913168  0.54419297  0.68028159    -0.20500
F1984       F  0.56678035  0.50879181  0.64715874    -0.23100
C1985       C  0.62360162  0.65287003  0.51472604    -0.06000
C1986       C  0.65199260  0.64424280  0.53002290     0.00000
C1987       C  0.67847405  0.63487926  0.51119376    -0.08600
C1988       C  0.67576592  0.63579881  0.47788888    -0.06000
C1989       C  0.64801107  0.64597513  0.46254211    -0.00100
C1990       C  0.62098440  0.65371835  0.48122691    -0.08500
C1991       C  0.58944185  0.66251092  0.46618796     0.61900
H1992       H  0.60351884  0.65966144  0.52932988     0.12500
H1993       H  0.69611878  0.62967153  0.46338935     0.12600
C1994       C  0.71017259  0.62540100  0.52570795     0.62100
F1995       F  0.56513967  0.66313427  0.48844773    -0.23100
F1996       F  0.58135122  0.64025718  0.44313675    -0.20400
F1997       F  0.59159981  0.69249911  0.45251972    -0.20100
F1998       F  0.70663538  0.59724810  0.54263952    -0.20100
F1999       F  0.72107021  0.64938689  0.54567789    -0.20500
F2000       F  0.73328654  0.62039818  0.50276794    -0.23100
C2001       C  0.87738583  0.52271307  0.84361213    -0.06000
C2002       C  0.84919928  0.53778014  0.85336151     0.00000
C2003       C  0.82242277  0.51869829  0.86169443    -0.08600
C2004       C  0.82509416  0.48530800  0.85985878    -0.06000
C2005       C  0.85283179  0.47027019  0.84885968    -0.00100
C2006       C  0.87961735  0.48930308  0.84062001    -0.08500
C2007       C  0.91033469  0.47486772  0.82838728     0.61900
H2008       H  0.89754738  0.53757136  0.83715794     0.12500
H2009       H  0.80471324  0.47055009  0.86578025     0.12600
C2010       C  0.79052460  0.53307239  0.87074971     0.62100
F2011       F  0.93440689  0.49746875  0.82600510    -0.23100
F2012       F  0.90556521  0.46208446  0.79837874    -0.20400
F2013       F  0.92043320  0.45119753  0.84891584    -0.20100
F2014       F  0.78038818  0.55338975  0.84690449    -0.20100
F2015       F  0.79330286  0.54976836  0.89904961    -0.20500
F2016       F  0.76722485  0.50991370  0.87495636    -0.23100
C2017       C  0.98439595  0.64823825  0.87402405    -0.06000
C2018       C  0.96833407  0.64356717  0.84508208     0.00000
C2019       C  0.98627750  0.63792238  0.81689534    -0.08600
C2020       C  0.01962679  0.63748067  0.81887869    -0.06000
C2021       C  0.03573774  0.64342278  0.84753789    -0.00100
C2022       C  0.01784315  0.64835444  0.87583987    -0.08500
C2023       C  0.03370102  0.65372051  0.90789246     0.61900
H2024       H  0.97041762  0.65268442  0.89524023     0.12500
H2025       H  0.03357658  0.63386284  0.79749418     0.12600
C2026       C  0.97069067  0.63416275  0.78439738     0.62100
F2027       F  0.01209888  0.65188804  0.93274508    -0.23100
F2028       F  0.04764111  0.68372181  0.90873369    -0.20400
F2029       F  0.05658397  0.63070400  0.91290750    -0.20100
F2030       F  0.95091437  0.65976639  0.77855604    -0.20100
F2031       F  0.95331124  0.60601483  0.78344715    -0.20500
F2032       F  0.99281685  0.63310811  0.75997907    -0.23100
C2033       C  0.85774919  0.62437607  0.97858421    -0.06000
C2034       C  0.85953750  0.65435767  0.96354274     0.00000
C2035       C  0.86136295  0.68237225  0.98252560    -0.08600
C2036       C  0.86104077  0.67928289  0.01587519    -0.06000
C2037       C  0.85857334  0.64941550  0.03113445    -0.00100
C2038       C  0.85750566  0.62129035  0.01213011    -0.08500
C2039       C  0.85663637  0.58815786  0.02687513     0.61900
H2040       H  0.85612053  0.60328537  0.96371134     0.12500
H2041       H  0.86172942  0.70062395  0.03043425     0.12600
C2042       C  0.86206232  0.71563191  0.96784990     0.62100
F2043       F  0.86096192  0.56447680  0.00426232    -0.23100
F2044       F  0.82757159  0.58283662  0.04137864    -0.20400
F2045       F  0.88061356  0.58543140  0.04917734    -0.20100
F2046       F  0.83655992  0.71923181  0.94746592    -0.20100
F2047       F  0.89008510  0.72010497  0.95117098    -0.20500
F2048       F  0.86023833  0.73944326  0.99068882    -0.23100
C2049       C  0.77901585  0.60976263  0.74603034    -0.06000
C2050       C  0.77305289  0.62821679  0.77339317     0.00000
C2051       C  0.74445958  0.64596457  0.77543027    -0.08600
C2052       C  0.72275330  0.64406576  0.75004828    -0.06000
C2053       C  0.72900865  0.62593826  0.72264380    -0.00100
C2054       C  0.75752264  0.60835107  0.72047307    -0.08500
C2055       C  0.76500803  0.58768763  0.69167141     0.61900
H2056       H  0.80096858  0.59650987  0.74471302     0.12500
H2057       H  0.70084227  0.65744834  0.75102715     0.12600
C2058       C  0.73728493  0.66795768  0.80335148     0.62100
F2059       F  0.79177029  0.56927785  0.69643831    -0.23100
F2060       F  0.77048926  0.60682015  0.66536428    -0.20400
F2061       F  0.73979280  0.56722730  0.68552461    -0.20100
F2062       F  0.76210128  0.68936646  0.80757666    -0.20100
F2063       F  0.73299126  0.65018782  0.83078466    -0.20500
F2064       F  0.70992663  0.68544935  0.79849631    -0.23100
C2065       C  0.52167013  0.87835605  0.85104250    -0.06000
C2066       C  0.53671346  0.84851732  0.84939147     0.00000
C2067       C  0.51794784  0.82023130  0.84883755    -0.08600
C2068       C  0.48473244  0.82293412  0.84949815    -0.06000
C2069       C  0.46948880  0.85268806  0.85060289    -0.00100
C2070       C  0.48823931  0.88100546  0.85205217    -0.08500
C2071       C  0.47328071  0.91375832  0.85532463     0.61900
H2072       H  0.53641692  0.89968418  0.85136663     0.12500
H2073       H  0.47021884  0.80148748  0.84834830     0.12600
C2074       C  0.53271300  0.78723613  0.84624566     0.62100
F2075       F  0.49569573  0.93707973  0.86232670    -0.23100
F2076       F  0.45112605  0.91341953  0.87972036    -0.20400
F2077       F  0.45859978  0.92208975  0.82713685    -0.20100
F2078       F  0.54927997  0.78039013  0.87377148    -0.20100
F2079       F  0.55313655  0.78622080  0.82043960    -0.20500
F2080       F  0.51003637  0.76347692  0.84207433    -0.23100
C2081       C  0.65007587  0.98436801  0.87259586    -0.06000
C2082       C  0.64083284  0.96780952  0.84491448     0.00000
C2083       C  0.62877068  0.98565978  0.81866127    -0.08600
C2084       C  0.62960079  0.01923649  0.82023016    -0.06000
C2085       C  0.64120574  0.03574127  0.84694343    -0.00100
C2086       C  0.64985925  0.01800067  0.87439623    -0.08500
C2087       C  0.65850203  0.03409459  0.90568891     0.61900
H2088       H  0.65821458  0.97070436  0.89286318     0.12500
H2089       H  0.62222649  0.03301007  0.79976685     0.12600
C2090       C  0.61585722  0.97003071  0.78850365     0.62100
F2091       F  0.65830919  0.01257415  0.93073274    -0.23100
F2092       F  0.63670537  0.05769575  0.91272591    -0.20400
F2093       F  0.68859677  0.04737730  0.90367250    -0.20100
F2094       F  0.58971311  0.95123520  0.79595445    -0.20100
F2095       F  0.63908406  0.95158059  0.77433219    -0.20500
F2096       F  0.60612004  0.99230172  0.76624104    -0.23100
C2097       C  0.63924004  0.82656678  0.97768861    -0.06000
C2098       C  0.64867277  0.85500710  0.96231938     0.00000
C2099       C  0.65714610  0.88193699  0.98137102    -0.08600
C2100       C  0.65621058  0.87891896  0.01486677    -0.06000
C2101       C  0.64758141  0.85014675  0.02994956    -0.00100
C2102       C  0.63897849  0.82336249  0.01097212    -0.08500
C2103       C  0.63108514  0.79084121  0.02535424     0.61900
H2104       H  0.63304738  0.80602295  0.96327897     0.12500
H2105       H  0.66298727  0.89898753  0.02971319     0.12600
C2106       C  0.66741393  0.91371028  0.96696832     0.62100
F2107       F  0.62797198  0.76729869  0.00235076    -0.23100
F2108       F  0.60266144  0.79238879  0.04180908    -0.20400
F2109       F  0.65506742  0.78158116  0.04576779    -0.20100
F2110       F  0.64516517  0.92369154  0.94498277    -0.20100
F2111       F  0.69666592  0.91051745  0.95230275    -0.20500
F2112       F  0.67032580  0.93741924  0.98983017    -0.23100
C2113       C  0.59974396  0.76437116  0.75536822    -0.06000
C2114       C  0.62851017  0.77191290  0.77052541     0.00000
C2115       C  0.65679840  0.75632937  0.76140571    -0.08600
C2116       C  0.65532105  0.73317905  0.73721575    -0.06000
C2117       C  0.62661773  0.72571638  0.72195901    -0.00100
C2118       C  0.59830064  0.74115557  0.73112237    -0.08500
C2119       C  0.56686480  0.73271014  0.71552265     0.61900
H2120       H  0.57852050  0.77692719  0.76253327     0.12500
H2121       H  0.67660776  0.72075849  0.72989202     0.12600
C2122       C  0.68833314  0.76443829  0.77707685     0.62100
F2123       F  0.54171559  0.74838882  0.72977027    -0.23100
F2124       F  0.56128912  0.70016290  0.71790782    -0.20400
F2125       F  0.56779833  0.74120629  0.68371255    -0.20100
F2126       F  0.68704295  0.75648651  0.80900812    -0.20100
F2127       F  0.69458191  0.79680132  0.77419386    -0.20500
F2128       F  0.71329860  0.74805605  0.76329849    -0.23100
C2129       C  0.75873020  0.78515491  0.85604706    -0.06000
C2130       C  0.73211765  0.78044274  0.87572177     0.00000
C2131       C  0.73090159  0.75353589  0.89620589    -0.08600
C2132       C  0.75594536  0.73148142  0.89519944    -0.06000
C2133       C  0.78213568  0.73560071  0.87480786    -0.00100
C2134       C  0.78383568  0.76311635  0.85503552    -0.08500
C2135       C  0.81116770  0.76866397  0.83193649     0.61900
H2136       H  0.75923006  0.80594685  0.84069534     0.12500
H2137       H  0.75505687  0.71041742  0.91016556     0.12600
C2138       C  0.70363770  0.74825791  0.91942760     0.62100
F2139       F  0.80626642  0.79508523  0.81276164    -0.23100
F2140       F  0.81451136  0.74237461  0.81229823    -0.20400
F2141       F  0.83900476  0.77373041  0.84865198    -0.20100
F2142       F  0.67642133  0.73985704  0.90298364    -0.20100
F2143       F  0.69823855  0.77590599  0.93665533    -0.20500
F2144       F  0.71010848  0.72406163  0.94088912    -0.23100
C2145       C  0.82794944  0.86355689  0.51513361    -0.06000
C2146       C  0.85702140  0.85740982  0.53018693     0.00000
C2147       C  0.88451592  0.85251828  0.51129893    -0.08600
C2148       C  0.88166761  0.85366622  0.47781555    -0.06000
C2149       C  0.85233617  0.85904935  0.46277311    -0.00100
C2150       C  0.82484315  0.86387803  0.48182198    -0.08500
C2151       C  0.79190348  0.86748572  0.46743859     0.61900
H2152       H  0.80712610  0.86690105  0.52989589     0.12500
H2153       H  0.90232643  0.84957993  0.46300765     0.12600
C2154       C  0.91668644  0.84625640  0.52622428     0.62100
F2155       F  0.76833122  0.86776165  0.49049483    -0.23100
F2156       F  0.78557194  0.84216959  0.44714401    -0.20400
F2157       F  0.79017093  0.89592567  0.45081693    -0.20100
F2158       F  0.91674968  0.81630140  0.54010580    -0.20100
F2159       F  0.92316930  0.86915949  0.54913712    -0.20500
F2160       F  0.94087757  0.84727166  0.50385472    -0.23100
C2161       C  0.98654034  0.82441134  0.63967250    -0.06000
C2162       C  0.97145165  0.85392232  0.64397743     0.00000
C2163       C  0.99020419  0.88202024  0.64711583    -0.08600
C2164       C  0.02361978  0.87929379  0.64632855    -0.06000
C2165       C  0.03867474  0.84959765  0.64241805    -0.00100
C2166       C  0.01976815  0.82156606  0.63916120    -0.08500
C2167       C  0.03433945  0.78849039  0.63661321     0.61900
H2168       H  0.97184510  0.80314774  0.63757021     0.12500
H2169       H  0.03837108  0.90042319  0.64919792     0.12600
C2170       C  0.97514822  0.91469567  0.65060187     0.62100
F2171       F  0.01155040  0.76449392  0.63767093    -0.23100
F2172       F  0.05505826  0.78355605  0.66164237    -0.20400
F2173       F  0.05048456  0.78571051  0.60805064    -0.20100
F2174       F  0.95991661  0.91690205  0.67970206    -0.20100
F2175       F  0.95340179  0.91934720  0.62641543    -0.20500
F2176       F  0.99753296  0.93904762  0.64897336    -0.23100
C2177       C  0.85155548  0.98418761  0.61741672    -0.06000
C2178       C  0.86031109  0.96909192  0.64600485     0.00000
C2179       C  0.86907933  0.98827018  0.67262529    -0.08600
C2180       C  0.86807592  0.02166591  0.66962795    -0.06000
C2181       C  0.85792070  0.03673173  0.64162083    -0.00100
C2182       C  0.85008338  0.01773679  0.61468284    -0.08500
C2183       C  0.84015694  0.03246743  0.58319206     0.61900
H2184       H  0.84500300  0.96936609  0.59730436     0.12500
H2185       H  0.87401561  0.03645621  0.68993948     0.12600
C2186       C  0.87795155  0.97407322  0.70476309     0.62100
F2187       F  0.83940656  0.01007790  0.55889870    -0.23100
F2188       F  0.86144004  0.05627299  0.57450036    -0.20400
F2189       F  0.81007485  0.04520167  0.58602078    -0.20100
F2190       F  0.90618335  0.95760433  0.70210678    -0.20100
F2191       F  0.85411730  0.95365921  0.71518926    -0.20500
F2192       F  0.88210898  0.99732601  0.72790100    -0.23100
C2193       C  0.74809213  0.78524608  0.61758891    -0.06000
C2194       C  0.77983520  0.77521196  0.61540035     0.00000
C2195       C  0.78585451  0.74209408  0.61067869    -0.08600
C2196       C  0.76012278  0.72041936  0.61152694    -0.06000
C2197       C  0.72844770  0.73028502  0.61561907    -0.00100
C2198       C  0.72223511  0.76372198  0.61727954    -0.08500
C2199       C  0.68881180  0.77736762  0.61849260     0.61900
H2200       H  0.74350860  0.81048660  0.62008155     0.12500
H2201       H  0.76489118  0.69515130  0.60936175     0.12600
C2202       C  0.81892490  0.72911962  0.60415014     0.62100
F2203       F  0.68885336  0.81043131  0.61694088    -0.23100
F2204       F  0.67404486  0.76871584  0.64669131    -0.20400
F2205       F  0.67141503  0.76622315  0.59280446    -0.20100
F2206       F  0.83726073  0.73117576  0.63137535    -0.20100
F2207       F  0.83314133  0.74626976  0.57974577    -0.20500
F2208       F  0.81808831  0.69736213  0.59483890    -0.23100
C2209       C  0.86275035  0.74981575  0.71843600    -0.06000
C2210       C  0.88401768  0.77545134  0.72177470     0.00000
C2211       C  0.90561093  0.77607410  0.74757155    -0.08600
C2212       C  0.90383018  0.75152475  0.77039093    -0.06000
C2213       C  0.88192778  0.72623350  0.76753283    -0.00100
C2214       C  0.86124635  0.72497828  0.74083447    -0.08500
C2215       C  0.83682316  0.69837872  0.73638652     0.61900
H2216       H  0.84673842  0.74980922  0.69823489     0.12500
H2217       H  0.91964715  0.75184334  0.79073786     0.12600
C2218       C  0.93104958  0.80182378  0.75034113     0.62100
F2219       F  0.81717196  0.70393028  0.71059776    -0.23100
F2220       F  0.81787925  0.69594967  0.76320988    -0.20400
F2221       F  0.85200485  0.66966877  0.73109722    -0.20100
F2222       F  0.91721623  0.83103146  0.75653155    -0.20100
F2223       F  0.94809098  0.80369630  0.72217334    -0.20500
F2224       F  0.95221822  0.79539588  0.77467230    -0.23100
C2225       C  0.78177624  0.89510272  0.74959017    -0.06000
C2226       C  0.77650291  0.87788887  0.72130404     0.00000
C2227       C  0.74713052  0.86121900  0.71745684    -0.08600
C2228       C  0.72395031  0.86352988  0.74149009    -0.06000
C2229       C  0.72927161  0.88043270  0.76987674    -0.00100
C2230       C  0.75893147  0.89639915  0.77420464    -0.08500
C2231       C  0.76680854  0.91476306  0.80446885     0.61900
H2232       H  0.80431902  0.90737557  0.75245083     0.12500
H2233       H  0.70143796  0.85120815  0.73855537     0.12600
C2234       C  0.74032783  0.83985382  0.68890391     0.62100
F2235       F  0.79461900  0.93237096  0.80144282    -0.23100
F2236       F  0.77077949  0.89358692  0.82940899    -0.20400
F2237       F  0.74263609  0.93581740  0.81166299    -0.20100
F2238       F  0.76518326  0.81886847  0.68439662    -0.20100
F2239       F  0.73632117  0.85837574  0.66196744    -0.20500
F2240       F  0.71297309  0.82173085  0.69301741    -0.23100
loop_ 
_geom_bond_atom_site_label_1 
_geom_bond_atom_site_label_2 
_geom_bond_distance 
_geom_bond_site_symmetry_2 
_ccdc_geom_bond_type 
Fe1          O17   2.075       .  S
Fe1           O7   2.055       .  S
Fe1          O14   2.051       .  S
Fe1           O6   2.077       .  S
Fe1          O12   1.975       .  S
Fe2           O5   2.084       .  S
Fe2           O9   2.057       .  S
Fe2          O13   2.089       .  S
Fe2          O18   2.053       .  S
Fe2          O12   1.977       .  S
Fe3          O21   2.059       .  S
Fe3           O8   2.066       .  S
Fe3          O15   2.079       .  S
Fe3           O4   2.057       .  S
Fe3          O12   1.972       .  S
O4           C11   1.265       .  A
O5           C19   1.272       .  A
O6           C11   1.272       .  A
O7           C10   1.268       .  A
O8           C20   1.268       .  A
O9           C22   1.266       .  A
C10          O15   1.270       .  A
C10        C2146   1.487       .  S
C11        C2194   1.500       .  S
O13          C16   1.274       .  A
O14          C16   1.264       .  A
C16        C2226   1.495       .  S
O17          C22   1.271       .  A
O18          C20   1.265       .  A
C19          O21   1.270       .  A
C19        C2162   1.487       .  S
C20        C2210   1.473       .  S
C22        C2178   1.490       .  S
Fe23         O39   2.063       .  S
Fe23         O29   2.064       .  S
Fe23         O36   2.057       .  S
Fe23         O28   2.066       .  S
Fe23         O34   1.975       .  S
Fe24         O27   2.083       .  S
Fe24         O31   2.069       .  S
Fe24         O35   2.073       .  S
Fe24         O40   2.057       .  S
Fe24         O34   1.983       .  S
Fe25         O43   2.051       .  S
Fe25         O30   2.078       .  S
Fe25         O37   2.079       .  S
Fe25         O26   2.055       .  S
Fe25         O34   1.978       .  S
O26          C33   1.264       .  A
O27          C41   1.273       .  A
O28          C33   1.266       .  A
O29          C32   1.269       .  A
O30          C42   1.272       .  A
O31          C44   1.268       .  A
C32          O37   1.272       .  A
C32        C2066   1.485       .  S
C33        C2114   1.469       .  S
O35          C38   1.270       .  A
O36          C38   1.266       .  A
C38        C2130   1.482       .  S
O39          C44   1.271       .  A
O40          C42   1.264       .  A
C41          O43   1.264       .  A
C41        C2082   1.497       .  S
C42        C2229   1.494       .  S
C44        C2098   1.499       .  S
Fe45         O61   2.059       .  S
Fe45         O51   2.053       .  S
Fe45         O58   2.051       .  S
Fe45         O50   2.053       .  S
Fe45         O56   1.977       .  S
Fe46         O49   2.072       .  S
Fe46         O53   2.079       .  S
Fe46         O57   2.065       .  S
Fe46         O62   2.071       .  S
Fe46         O56   1.979       .  S
Fe47         O65   2.074       .  S
Fe47         O52   2.061       .  S
Fe47         O59   2.068       .  S
Fe47         O48   2.072       .  S
Fe47         O56   1.980       .  S
O48          C55   1.268       .  A
O49          C63   1.270       .  A
O50          C55   1.266       .  A
O51          C54   1.268       .  A
O52          C64   1.268       .  A
O53          C66   1.272       .  A
C54          O59   1.269       .  A
C54        C2002   1.486       .  S
C55        C2050   1.486       .  S
O57          C60   1.268       .  A
O58          C60   1.263       .  A
C60        C2213   1.478       .  S
O61          C66   1.267       .  A
O62          C64   1.268       .  A
C63          O65   1.271       .  A
C63        C2034   1.489       .  S
C64        C2133   1.485       .  S
C66        C2018   1.489       .  S
Fe67         O83   2.066       .  S
Fe67         O73   2.055       .  S
Fe67         O80   2.055       .  S
Fe67         O72   2.075       .  S
Fe67         O78   1.962       .  S
Fe68         O71   2.080       .  S
Fe68         O75   2.062       .  S
Fe68         O79   2.071       .  S
Fe68         O84   2.050       .  S
Fe68         O78   1.973       .  S
Fe69         O87   2.051       .  S
Fe69         O74   2.074       .  S
Fe69         O81   2.080       .  S
Fe69         O70   2.055       .  S
Fe69         O78   1.967       .  S
O70          C77   1.263       .  A
O71          C85   1.272       .  A
O72          C77   1.271       .  A
O73          C76   1.267       .  A
O74          C86   1.270       .  A
O75          C88   1.267       .  A
C76          O81   1.272       .  A
C76        C1986   1.490       .  S
C77        C2197   1.503       .  S
O79          C82   1.269       .  A
O80          C82   1.266       .  A
C82        C2053   1.478       .  S
O83          C88   1.271       .  A
O84          C86   1.265       .  A
C85          O87   1.264       .  A
C85        C1954   1.501       .  S
C86        C2117   1.469       .  S
C88        C1970   1.492       .  S
Fe89        O105   2.058       .  S
Fe89         O95   2.072       .  S
Fe89        O102   2.077       .  S
Fe89         O94   2.048       .  S
Fe89        O100   1.970       .  S
Fe90         O93   2.052       .  S
Fe90         O97   2.070       .  S
Fe90        O101   2.052       .  S
Fe90        O106   2.069       .  S
Fe90        O100   1.971       .  S
Fe91        O109   2.071       .  S
Fe91         O96   2.069       .  S
Fe91        O103   2.075       .  S
Fe91         O92   2.070       .  S
Fe91        O100   1.976       .  S
O92          C99   1.267       .  A
O93         C107   1.265       .  A
O94          C99   1.267       .  A
O95          C98   1.272       .  A
O96         C108   1.269       .  A
O97         C110   1.268       .  A
C98         O103   1.270       .  A
C98        C1890   1.505       .  S
C99        C1938   1.487       .  S
O101        C104   1.267       .  A
O102        C104   1.268       .  A
C104       C1925   1.502       .  S
O105        C110   1.269       .  A
O106        C108   1.269       .  A
C107        O109   1.270       .  A
C107       C1874   1.487       .  S
C108       C1906   1.483       .  S
C110       C2181   1.488       .  S
Fe111       O127   2.078       .  S
Fe111       O117   2.053       .  S
Fe111       O124   2.045       .  S
Fe111       O116   2.076       .  S
Fe111       O122   1.974       .  S
Fe112       O115   2.068       .  S
Fe112       O119   2.046       .  S
Fe112       O123   2.073       .  S
Fe112       O128   2.040       .  S
Fe112       O122   1.968       .  S
Fe113       O131   2.059       .  S
Fe113       O118   2.076       .  S
Fe113       O125   2.071       .  S
Fe113       O114   2.045       .  S
Fe113       O122   1.977       .  S
O114        C121   1.263       .  A
O115        C129   1.272       .  A
O116        C121   1.271       .  A
O117        C120   1.266       .  A
O118        C130   1.271       .  A
O119        C132   1.267       .  A
C120        O125   1.271       .  A
C120       C1810   1.484       .  S
C121       C1941   1.487       .  S
O123        C126   1.267       .  A
O124        C126   1.265       .  A
C126       C1842   1.483       .  S
O127        C132   1.270       .  A
O128        C130   1.260       .  A
C129        O131   1.266       .  A
C129       C1826   1.493       .  S
C130       C1858   1.498       .  S
C132       C2005   1.487       .  S
Fe133       O149   2.068       .  S
Fe133       O139   2.065       .  S
Fe133       O146   2.065       .  S
Fe133       O138   2.066       .  S
Fe133       O144   1.978       .  S
Fe134       O137   2.068       .  S
Fe134       O141   2.062       .  S
Fe134       O145   2.065       .  S
Fe134       O150   2.056       .  S
Fe134       O144   1.975       .  S
Fe135       O153   2.062       .  S
Fe135       O140   2.058       .  S
Fe135       O147   2.061       .  S
Fe135       O136   2.065       .  S
Fe135       O144   1.977       .  S
O136        C143   1.267       .  A
O137        C151   1.272       .  A
O138        C143   1.270       .  A
O139        C142   1.267       .  A
O140        C152   1.268       .  A
O141        C154   1.267       .  A
C142        O147   1.268       .  A
C142       C1762   1.489       .  S
C143       C1794   1.486       .  S
O145        C148   1.269       .  A
O146        C148   1.265       .  A
C148       C1922   1.501       .  S
O149        C154   1.271       .  A
O150        C152   1.263       .  A
C151        O153   1.267       .  A
C151       C1778   1.486       .  S
C152       C1861   1.497       .  S
C154       C2085   1.492       .  S
Fe155       O171   2.067       .  S
Fe155       O161   2.054       .  S
Fe155       O168   2.054       .  S
Fe155       O160   2.064       .  S
Fe155       O166   1.973       .  S
Fe156       O159   2.060       .  S
Fe156       O163   2.059       .  S
Fe156       O167   2.064       .  S
Fe156       O172   2.054       .  S
Fe156       O166   1.973       .  S
Fe157       O175   2.069       .  S
Fe157       O162   2.086       .  S
Fe157       O169   2.087       .  S
Fe157       O158   2.061       .  S
Fe157       O166   1.976       .  S
O158        C165   1.267       .  A
O159        C173   1.266       .  A
O160        C165   1.269       .  A
O161        C164   1.265       .  A
O162        C174   1.272       .  A
O163        C176   1.268       .  A
C164        O169   1.273       .  A
C164       C1730   1.490       .  S
C165       C1797   1.481       .  S
O167        C170   1.266       .  A
O168        C170   1.265       .  A
C170       C1845   1.478       .  S
O171        C176   1.270       .  A
O172        C174   1.267       .  A
C173        O175   1.272       .  A
C173       C1746   1.493       .  S
C174       C1909   1.483       .  S
C176       C1973   1.481       .  S
Fe177       O193   2.075       .  S
Fe177       O183   2.053       .  S
Fe177       O190   2.054       .  S
Fe177       O182   2.075       .  S
Fe177       O188   1.972       .  S
Fe178       O181   2.047       .  S
Fe178       O185   2.065       .  S
Fe178       O189   2.052       .  S
Fe178       O194   2.062       .  S
Fe178       O188   1.975       .  S
Fe179       O197   2.067       .  S
Fe179       O184   2.067       .  S
Fe179       O191   2.075       .  S
Fe179       O180   2.064       .  S
Fe179       O188   1.982       .  S
O180        C187   1.266       .  A
O181        C195   1.264       .  A
O182        C187   1.270       .  A
O183        C186   1.266       .  A
O184        C196   1.270       .  A
O185        C198   1.269       .  A
C186        O191   1.271       .  A
C186       C1650   1.481       .  S
C187       C1682   1.488       .  S
O189        C192   1.264       .  A
O190        C192   1.266       .  A
C192       C1698   1.477       .  S
O193        C198   1.271       .  A
O194        C196   1.266       .  A
C195        O197   1.269       .  A
C195       C1666   1.481       .  S
C196       C1714   1.495       .  S
C198       C2165   1.488       .  S
Fe199       O215   2.069       .  S
Fe199       O205   2.056       .  S
Fe199       O212   2.046       .  S
Fe199       O204   2.074       .  S
Fe199       O210   1.969       .  S
Fe200       O203   2.084       .  S
Fe200       O207   2.069       .  S
Fe200       O211   2.079       .  S
Fe200       O216   2.062       .  S
Fe200       O210   1.975       .  S
Fe201       O219   2.058       .  S
Fe201       O206   2.065       .  S
Fe201       O213   2.072       .  S
Fe201       O202   2.054       .  S
Fe201       O210   1.967       .  S
O202        C209   1.266       .  A
O203        C217   1.273       .  A
O204        C209   1.267       .  A
O205        C208   1.270       .  A
O206        C218   1.270       .  A
O207        C220   1.268       .  A
C208        O213   1.270       .  A
C208       C1602   1.485       .  S
C209       C1634   1.486       .  S
O211        C214   1.271       .  A
O212        C214   1.265       .  A
C214       C1618   1.475       .  S
O215        C220   1.271       .  A
O216        C218   1.266       .  A
C217        O219   1.268       .  A
C217       C1586   1.483       .  S
C218       C1717   1.490       .  S
C220       C2069   1.490       .  S
Fe221       O237   2.063       .  S
Fe221       O227   2.063       .  S
Fe221       O234   2.059       .  S
Fe221       O226   2.060       .  S
Fe221       O232   1.976       .  S
Fe222       O225   2.055       .  S
Fe222       O229   2.077       .  S
Fe222       O233   2.053       .  S
Fe222       O238   2.069       .  S
Fe222       O232   1.978       .  S
Fe223       O241   2.072       .  S
Fe223       O228   2.064       .  S
Fe223       O235   2.063       .  S
Fe223       O224   2.067       .  S
Fe223       O232   1.983       .  S
O224        C231   1.268       .  A
O225        C239   1.268       .  A
O226        C231   1.266       .  A
O227        C230   1.268       .  A
O228        C240   1.267       .  A
O229        C242   1.273       .  A
C230        O235   1.270       .  A
C230       C1554   1.488       .  S
C231       C1637   1.482       .  S
O233        C236   1.263       .  A
O234        C236   1.267       .  A
C236       C1701   1.482       .  S
O237        C242   1.268       .  A
O238        C240   1.271       .  A
C239        O241   1.268       .  A
C239       C1538   1.480       .  S
C240       C1573   1.493       .  S
C242       C2021   1.490       .  S
Fe243       O259   2.064       .  S
Fe243       O249   2.065       .  S
Fe243       O256   2.074       .  S
Fe243       O248   2.065       .  S
Fe243       O254   1.974       .  S
Fe244       O247   2.052       .  S
Fe244       O251   2.068       .  S
Fe244       O255   2.048       .  S
Fe244       O260   2.067       .  S
Fe244       O254   1.971       .  S
Fe245       O263   2.071       .  S
Fe245       O250   2.061       .  S
Fe245       O257   2.060       .  S
Fe245       O246   2.070       .  S
Fe245       O254   1.972       .  S
O246        C253   1.269       .  A
O247        C261   1.267       .  A
O248        C253   1.271       .  A
O249        C252   1.267       .  A
O250        C262   1.266       .  A
O251        C264   1.266       .  A
C252        O257   1.269       .  A
C252       C1525   1.487       .  S
C253       C1685   1.488       .  S
O255        C258   1.267       .  A
O256        C258   1.268       .  A
C258       C1621   1.475       .  S
O259        C264   1.271       .  A
O260        C262   1.268       .  A
C261        O263   1.271       .  A
C261       C1506   1.478       .  S
C262       C1570   1.487       .  S
C264       C1957   1.499       .  S
Fe265       O281   2.077       .  S
Fe265       O271   2.064       .  S
Fe265       O278   2.059       .  S
Fe265       O270   2.075       .  S
Fe265       O276   1.974       .  S
Fe266       O269   2.069       .  S
Fe266       O273   2.066       .  S
Fe266       O277   2.065       .  S
Fe266       O282   2.062       .  S
Fe266       O276   1.970       .  S
Fe267       O285   2.056       .  S
Fe267       O272   2.082       .  S
Fe267       O279   2.081       .  S
Fe267       O268   2.048       .  S
Fe267       O276   1.972       .  S
O268        C275   1.266       .  A
O269        C283   1.269       .  A
O270        C275   1.270       .  A
O271        C274   1.270       .  A
O272        C284   1.269       .  A
O273        C286   1.269       .  A
C274        O279   1.269       .  A
C274       C1893   1.505       .  S
C275       C1461   1.472       .  S
O277        C280   1.269       .  A
O278        C280   1.266       .  A
C280       C1490   1.482       .  S
O281        C286   1.272       .  A
O282        C284   1.267       .  A
C283        O285   1.270       .  A
C283       C1669   1.480       .  S
C284       C1474   1.484       .  S
C286       C1442   1.491       .  S
Fe287       O303   2.069       .  S
Fe287       O293   2.049       .  S
Fe287       O300   2.055       .  S
Fe287       O292   2.064       .  S
Fe287       O298   1.976       .  S
Fe288       O291   2.064       .  S
Fe288       O295   2.068       .  S
Fe288       O299   2.069       .  S
Fe288       O304   2.060       .  S
Fe288       O298   1.977       .  S
Fe289       O307   2.079       .  S
Fe289       O294   2.068       .  S
Fe289       O301   2.076       .  S
Fe289       O290   2.068       .  S
Fe289       O298   1.984       .  S
O290        C297   1.269       .  A
O291        C305   1.268       .  A
O292        C297   1.266       .  A
O293        C296   1.269       .  A
O294        C306   1.270       .  A
O295        C308   1.268       .  A
C296        O301   1.270       .  A
C296       C1509   1.486       .  S
C297       C1426   1.486       .  S
O299        C302   1.268       .  A
O300        C302   1.264       .  A
C302       C1410   1.485       .  S
O303        C308   1.271       .  A
O304        C306   1.266       .  A
C305        O307   1.271       .  A
C305       C1394   1.494       .  S
C306       C1493   1.486       .  S
C308       C1733   1.491       .  S
Fe309       O325   2.059       .  S
Fe309       O315   2.062       .  S
Fe309       O322   2.068       .  S
Fe309       O314   2.066       .  S
Fe309       O320   1.973       .  S
Fe310       O313   2.083       .  S
Fe310       O317   2.075       .  S
Fe310       O321   2.090       .  S
Fe310       O326   2.062       .  S
Fe310       O320   1.978       .  S
Fe311       O329   2.048       .  S
Fe311       O316   2.063       .  S
Fe311       O323   2.071       .  S
Fe311       O312   2.048       .  S
Fe311       O320   1.972       .  S
O312        C319   1.263       .  A
O313        C327   1.275       .  A
O314        C319   1.268       .  A
O315        C318   1.272       .  A
O316        C328   1.268       .  A
O317        C330   1.268       .  A
C318        O323   1.268       .  A
C318       C1362   1.492       .  S
C319       C1378   1.486       .  S
O321        C324   1.274       .  A
O322        C324   1.270       .  A
C324       C1477   1.483       .  S
O325        C330   1.268       .  A
O326        C328   1.265       .  A
C327        O329   1.265       .  A
C327       C1765   1.488       .  S
C328       C1413   1.483       .  S
C330       C1589   1.487       .  S
Fe331       O347   2.055       .  S
Fe331       O337   2.059       .  S
Fe331       O344   2.065       .  S
Fe331       O336   2.058       .  S
Fe331       O342   1.965       .  S
Fe332       O335   2.063       .  S
Fe332       O339   2.073       .  S
Fe332       O343   2.060       .  S
Fe332       O348   2.068       .  S
Fe332       O342   1.969       .  S
Fe333       O351   2.078       .  S
Fe333       O338   2.055       .  S
Fe333       O345   2.077       .  S
Fe333       O334   2.081       .  S
Fe333       O342   1.966       .  S
O334        C341   1.271       .  A
O335        C349   1.269       .  A
O336        C341   1.265       .  A
O337        C340   1.268       .  A
O338        C350   1.269       .  A
O339        C352   1.268       .  A
C340        O345   1.272       .  A
C340       C1541   1.483       .  S
C341       C1429   1.491       .  S
O343        C346   1.269       .  A
O344        C346   1.267       .  A
C346       C1458   1.473       .  S
O347        C352   1.268       .  A
O348        C350   1.266       .  A
C349        O351   1.274       .  A
C349       C1349   1.500       .  S
C350       C1381   1.488       .  S
C352       C1813   1.484       .  S
Fe353       O369   2.067       .  S
Fe353       O359   2.073       .  S
Fe353       O366   2.070       .  S
Fe353       O358   2.061       .  S
Fe353       O364   1.972       .  S
Fe354       O357   2.059       .  S
Fe354       O361   2.071       .  S
Fe354       O365   2.053       .  S
Fe354       O370   2.070       .  S
Fe354       O364   1.971       .  S
Fe355       O373   2.081       .  S
Fe355       O360   2.049       .  S
Fe355       O367   2.048       .  S
Fe355       O356   2.080       .  S
Fe355       O364   1.980       .  S
O356        C363   1.269       .  A
O357        C371   1.266       .  A
O358        C363   1.267       .  A
O359        C362   1.270       .  A
O360        C372   1.265       .  A
O361        C374   1.270       .  A
C362        O367   1.268       .  A
C362       C1282   1.480       .  S
C363       C1314   1.482       .  S
O365        C368   1.265       .  A
O366        C368   1.270       .  A
C368       C1298   1.487       .  S
O369        C374   1.269       .  A
O370        C372   1.269       .  A
C371        O373   1.271       .  A
C371       C1266   1.500       .  S
C372       C1330   1.467       .  S
C374       C2149   1.489       .  S
Fe375       O391   2.074       .  S
Fe375       O381   2.080       .  S
Fe375       O388   2.078       .  S
Fe375       O380   2.068       .  S
Fe375       O386   1.971       .  S
Fe376       O379   2.057       .  S
Fe376       O383   2.068       .  S
Fe376       O387   2.050       .  S
Fe376       O392   2.069       .  S
Fe376       O386   1.962       .  S
Fe377       O395   2.079       .  S
Fe377       O382   2.050       .  S
Fe377       O389   2.051       .  S
Fe377       O378   2.068       .  S
Fe377       O386   1.966       .  S
O378        C385   1.269       .  A
O379        C393   1.271       .  A
O380        C385   1.267       .  A
O381        C384   1.274       .  A
O382        C394   1.265       .  A
O383        C396   1.270       .  A
C384        O389   1.267       .  A
C384       C1202   1.481       .  S
C385       C1237   1.488       .  S
O387        C390   1.265       .  A
O388        C390   1.274       .  A
C390       C1253   1.496       .  S
O391        C396   1.269       .  A
O392        C394   1.266       .  A
C393        O395   1.270       .  A
C393       C1218   1.489       .  S
C394       C1333   1.473       .  S
C396       C2037   1.497       .  S
Fe397       O413   2.080       .  S
Fe397       O403   2.070       .  S
Fe397       O410   2.059       .  S
Fe397       O402   2.081       .  S
Fe397       O408   1.973       .  S
Fe398       O401   2.068       .  S
Fe398       O405   2.058       .  S
Fe398       O409   2.067       .  S
Fe398       O414   2.059       .  S
Fe398       O408   1.970       .  S
Fe399       O417   2.060       .  S
Fe399       O404   2.066       .  S
Fe399       O411   2.062       .  S
Fe399       O400   2.061       .  S
Fe399       O408   1.967       .  S
O400        C407   1.267       .  A
O401        C415   1.267       .  A
O402        C407   1.271       .  A
O403        C406   1.268       .  A
O404        C416   1.266       .  A
O405        C418   1.268       .  A
C406        O411   1.270       .  A
C406       C1173   1.494       .  S
C407       C1317   1.482       .  S
O409        C412   1.265       .  A
O410        C412   1.269       .  A
C412       C1250   1.499       .  S
O413        C418   1.273       .  A
O414        C416   1.269       .  A
C415        O417   1.270       .  A
C415       C1154   1.484       .  S
C416       C1189   1.479       .  S
C418       C2101   1.489       .  S
Fe419       O435   2.055       .  S
Fe419       O425   2.067       .  S
Fe419       O432   2.075       .  S
Fe419       O424   2.040       .  S
Fe419       O430   1.968       .  S
Fe420       O423   2.052       .  S
Fe420       O427   2.080       .  S
Fe420       O431   2.049       .  S
Fe420       O436   2.075       .  S
Fe420       O430   1.973       .  S
Fe421       O439   2.106       .  S
Fe421       O426   2.051       .  S
Fe421       O433   2.071       .  S
Fe421       O422   2.099       .  S
Fe421       O430   1.974       .  S
O422        C429   1.276       .  A
O423        C437   1.268       .  A
O424        C429   1.262       .  A
O425        C428   1.270       .  A
O426        C438   1.265       .  A
O427        C440   1.271       .  A
C428        O433   1.270       .  A
C428       C1141   1.487       .  S
C429       C1234   1.499       .  S
O431        C434   1.261       .  A
O432        C434   1.269       .  A
C434       C1301   1.495       .  S
O435        C440   1.270       .  A
O436        C438   1.270       .  A
C437        O439   1.276       .  A
C437       C1125   1.503       .  S
C438       C1186   1.478       .  S
C440       C1989   1.490       .  S
Fe441       O457   2.087       .  S
Fe441       O447   2.054       .  S
Fe441       O454   2.048       .  S
Fe441       O446   2.092       .  S
Fe441       O452   1.968       .  S
Fe442       O445   2.083       .  S
Fe442       O449   2.056       .  S
Fe442       O453   2.082       .  S
Fe442       O458   2.052       .  S
Fe442       O452   1.971       .  S
Fe443       O461   2.054       .  S
Fe443       O448   2.085       .  S
Fe443       O455   2.087       .  S
Fe443       O444   2.045       .  S
Fe443       O452   1.969       .  S
O444        C451   1.262       .  A
O445        C459   1.272       .  A
O446        C451   1.274       .  A
O447        C450   1.267       .  A
O448        C460   1.272       .  A
O449        C462   1.266       .  A
C450        O455   1.273       .  A
C450       C1170   1.487       .  S
C451       C1090   1.500       .  S
O453        C456   1.272       .  A
O454        C456   1.265       .  A
C456       C1106   1.491       .  S
O457        C462   1.273       .  A
O458        C460   1.265       .  A
C459        O461   1.267       .  A
C459       C1781   1.483       .  S
C460       C1074   1.491       .  S
C462       C1058   1.492       .  S
Fe463       O479   2.069       .  S
Fe463       O469   2.064       .  S
Fe463       O476   2.074       .  S
Fe463       O468   2.050       .  S
Fe463       O474   1.978       .  S
Fe464       O467   2.050       .  S
Fe464       O471   2.069       .  S
Fe464       O475   2.048       .  S
Fe464       O480   2.071       .  S
Fe464       O474   1.971       .  S
Fe465       O483   2.079       .  S
Fe465       O470   2.046       .  S
Fe465       O477   2.047       .  S
Fe465       O466   2.066       .  S
Fe465       O474   1.983       .  S
O466        C473   1.270       .  A
O467        C481   1.263       .  A
O468        C473   1.264       .  A
O469        C472   1.270       .  A
O470        C482   1.262       .  A
O471        C484   1.273       .  A
C472        O477   1.264       .  A
C472       C1138   1.471       .  S
C473       C1042   1.488       .  S
O475        C478   1.265       .  A
O476        C478   1.268       .  A
C478       C1109   1.485       .  S
O479        C484   1.268       .  A
O480        C482   1.268       .  A
C481        O483   1.273       .  A
C481       C1749   1.501       .  S
C482       C1029   1.479       .  S
C484       C1010   1.502       .  S
Fe485       O501   2.074       .  S
Fe485       O491   2.058       .  S
Fe485       O498   2.054       .  S
Fe485       O490   2.074       .  S
Fe485       O496   1.965       .  S
Fe486       O489   2.089       .  S
Fe486       O493   2.046       .  S
Fe486       O497   2.091       .  S
Fe486       O502   2.046       .  S
Fe486       O496   1.960       .  S
Fe487       O505   2.055       .  S
Fe487       O492   2.068       .  S
Fe487       O499   2.064       .  S
Fe487       O488   2.051       .  S
Fe487       O496   1.965       .  S
O488        C495   1.270       .  A
O489        C503   1.273       .  A
O490        C495   1.269       .  A
O491        C494   1.268       .  A
O492        C504   1.266       .  A
O493        C506   1.264       .  A
C494        O499   1.265       .  A
C494       C1877   1.484       .  S
C495       C1026   1.487       .  S
O497        C500   1.275       .  A
O498        C500   1.263       .  A
C500       C1093   1.508       .  S
O501        C506   1.272       .  A
O502        C504   1.265       .  A
C503        O505   1.270       .  A
C503        C978   1.487       .  S
C504        C994   1.472       .  S
C506       C1285   1.481       .  S
Fe507       O523   2.073       .  S
Fe507       O513   2.067       .  S
Fe507       O520   2.064       .  S
Fe507       O512   2.059       .  S
Fe507       O518   1.978       .  S
Fe508       O511   2.066       .  S
Fe508       O515   2.055       .  S
Fe508       O519   2.073       .  S
Fe508       O524   2.048       .  S
Fe508       O518   1.972       .  S
Fe509       O527   2.063       .  S
Fe509       O514   2.061       .  S
Fe509       O521   2.063       .  S
Fe509       O510   2.060       .  S
Fe509       O518   1.981       .  S
O510        C517   1.267       .  A
O511        C525   1.269       .  A
O512        C517   1.267       .  A
O513        C516   1.270       .  A
O514        C526   1.264       .  A
O515        C528   1.265       .  A
C516        O521   1.267       .  A
C516        C962   1.487       .  S
C517        C997   1.472       .  S
O519        C522   1.270       .  A
O520        C522   1.265       .  A
C522       C1077   1.493       .  S
O523        C528   1.272       .  A
O524        C526   1.266       .  A
C525        O527   1.271       .  A
C525       C1205   1.486       .  S
C526       C1045   1.487       .  S
C528       C1829   1.493       .  S
Fe529       O545   2.067       .  S
Fe529       O535   2.071       .  S
Fe529       O542   2.062       .  S
Fe529       O534   2.072       .  S
Fe529       O540   1.980       .  S
Fe530       O533   2.052       .  S
Fe530       O537   2.071       .  S
Fe530       O541   2.041       .  S
Fe530       O546   2.069       .  S
Fe530       O540   1.980       .  S
Fe531       O549   2.065       .  S
Fe531       O536   2.064       .  S
Fe531       O543   2.066       .  S
Fe531       O532   2.063       .  S
Fe531       O540   1.978       .  S
O532        C539   1.266       .  A
O533        C547   1.268       .  A
O534        C539   1.268       .  A
O535        C538   1.269       .  A
O536        C548   1.268       .  A
O537        C550   1.271       .  A
C538        O543   1.271       .  A
C538       C1445   1.492       .  S
C539        C914   1.481       .  S
O541        C544   1.262       .  A
O542        C544   1.269       .  A
C544        C949   1.475       .  S
O545        C550   1.269       .  A
O546        C548   1.267       .  A
C547        O549   1.268       .  A
C547        C901   1.477       .  S
C548        C930   1.488       .  S
C550        C981   1.494       .  S
Fe551       O567   2.059       .  S
Fe551       O557   2.084       .  S
Fe551       O564   2.086       .  S
Fe551       O556   2.047       .  S
Fe551       O562   1.960       .  S
Fe552       O555   2.055       .  S
Fe552       O559   2.080       .  S
Fe552       O563   2.043       .  S
Fe552       O568   2.070       .  S
Fe552       O562   1.962       .  S
Fe553       O571   2.086       .  S
Fe553       O558   2.038       .  S
Fe553       O565   2.049       .  S
Fe553       O554   2.089       .  S
Fe553       O562   1.962       .  S
O554        C561   1.272       .  A
O555        C569   1.268       .  A
O556        C561   1.268       .  A
O557        C560   1.271       .  A
O558        C570   1.261       .  A
O559        C572   1.273       .  A
C560        O565   1.267       .  A
C560        C850   1.490       .  S
C561        C869   1.494       .  S
O563        C566   1.264       .  A
O564        C566   1.272       .  A
C566        C885   1.468       .  S
O567        C572   1.267       .  A
O568        C570   1.269       .  A
C569        O571   1.274       .  A
C569        C965   1.483       .  S
C570        C946   1.481       .  S
C572       C1346   1.499       .  S
Fe573       O589   2.067       .  S
Fe573       O579   2.080       .  S
Fe573       O586   2.081       .  S
Fe573       O578   2.056       .  S
Fe573       O584   1.979       .  S
Fe574       O577   2.047       .  S
Fe574       O581   2.056       .  S
Fe574       O585   2.050       .  S
Fe574       O590   2.069       .  S
Fe574       O584   1.971       .  S
Fe575       O593   2.086       .  S
Fe575       O580   2.057       .  S
Fe575       O587   2.064       .  S
Fe575       O576   2.073       .  S
Fe575       O584   1.978       .  S
O576        C583   1.270       .  A
O577        C591   1.264       .  A
O578        C583   1.265       .  A
O579        C582   1.271       .  A
O580        C592   1.265       .  A
O581        C594   1.265       .  A
C582        O587   1.271       .  A
C582       C1061   1.495       .  S
C583        C834   1.493       .  S
O585        C588   1.267       .  A
O586        C588   1.270       .  A
C588        C933   1.491       .  S
O589        C594   1.270       .  A
O590        C592   1.267       .  A
C591        O593   1.274       .  A
C591       C1365   1.496       .  S
C592        C882   1.472       .  S
C594        C821   1.489       .  S
Fe595       O611   2.059       .  S
Fe595       O601   2.079       .  S
Fe595       O608   2.070       .  S
Fe595       O600   2.062       .  S
Fe595       O606   1.980       .  S
Fe596       O599   2.077       .  S
Fe596       O603   2.068       .  S
Fe596       O607   2.069       .  S
Fe596       O612   2.067       .  S
Fe596       O606   1.985       .  S
Fe597       O615   2.062       .  S
Fe597       O602   2.064       .  S
Fe597       O609   2.062       .  S
Fe597       O598   2.063       .  S
Fe597       O606   1.969       .  S
O598        C605   1.268       .  A
O599        C613   1.270       .  A
O600        C605   1.265       .  A
O601        C604   1.272       .  A
O602        C614   1.269       .  A
O603        C616   1.270       .  A
C604        O609   1.267       .  A
C604       C1013   1.500       .  S
C605        C837   1.487       .  S
O607        C610   1.270       .  A
O608        C610   1.269       .  A
C610        C866   1.488       .  S
O611        C616   1.268       .  A
O612        C614   1.267       .  A
C613        O615   1.270       .  A
C613       C1397   1.497       .  S
C614        C917   1.480       .  S
C616        C805   1.485       .  S
Fe617       O633   2.075       .  S
Fe617       O623   2.067       .  S
Fe617       O630   2.058       .  S
Fe617       O622   2.076       .  S
Fe617       O628   1.969       .  S
Fe618       O621   2.083       .  S
Fe618       O625   2.052       .  S
Fe618       O629   2.083       .  S
Fe618       O634   2.051       .  S
Fe618       O628   1.970       .  S
Fe619       O637   2.049       .  S
Fe619       O624   2.078       .  S
Fe619       O631   2.066       .  S
Fe619       O620   2.047       .  S
Fe619       O628   1.956       .  S
O620        C627   1.268       .  A
O621        C635   1.273       .  A
O622        C627   1.267       .  A
O623        C626   1.269       .  A
O624        C636   1.270       .  A
O625        C638   1.265       .  A
C626        O631   1.271       .  A
C626       C1557   1.496       .  S
C627        C754   1.497       .  S
O629        C632   1.273       .  A
O630        C632   1.267       .  A
C632        C786   1.491       .  S
O633        C638   1.272       .  A
O634        C636   1.266       .  A
C635        O637   1.265       .  A
C635       C1221   1.489       .  S
C636        C773   1.482       .  S
C638        C853   1.488       .  S
Fe639       O655   2.062       .  S
Fe639       O645   2.055       .  S
Fe639       O652   2.055       .  S
Fe639       O644   2.062       .  S
Fe639       O650   1.977       .  S
Fe640       O643   2.068       .  S
Fe640       O647   2.057       .  S
Fe640       O651   2.072       .  S
Fe640       O656   2.047       .  S
Fe640       O650   1.979       .  S
Fe641       O659   2.067       .  S
Fe641       O646   2.063       .  S
Fe641       O653   2.073       .  S
Fe641       O642   2.063       .  S
Fe641       O650   1.981       .  S
O642        C649   1.268       .  A
O643        C657   1.271       .  A
O644        C649   1.266       .  A
O645        C648   1.266       .  A
O646        C658   1.267       .  A
O647        C660   1.269       .  A
C648        O653   1.271       .  A
C648       C1522   1.489       .  S
C649        C738   1.488       .  S
O651        C654   1.270       .  A
O652        C654   1.265       .  A
C654        C789   1.483       .  S
O655        C660   1.267       .  A
O656        C658   1.265       .  A
C657        O659   1.268       .  A
C657       C1122   1.496       .  S
C658        C722   1.467       .  S
C660        C802   1.484       .  S
Fe661       O677   2.079       .  S
Fe661       O667   2.052       .  S
Fe661       O674   2.048       .  S
Fe661       O666   2.081       .  S
Fe661       O672   1.976       .  S
Fe662       O665   2.060       .  S
Fe662       O669   2.064       .  S
Fe662       O673   2.068       .  S
Fe662       O678   2.054       .  S
Fe662       O672   1.974       .  S
Fe663       O681   2.063       .  S
Fe663       O668   2.070       .  S
Fe663       O675   2.069       .  S
Fe663       O664   2.058       .  S
Fe663       O672   1.982       .  S
O664        C671   1.264       .  A
O665        C679   1.269       .  A
O666        C671   1.271       .  A
O667        C670   1.266       .  A
O668        C680   1.269       .  A
O669        C682   1.271       .  A
C670        O675   1.271       .  A
C670        C898   1.480       .  S
C671        C706   1.496       .  S
O673        C676   1.266       .  A
O674        C676   1.266       .  A
C676        C770   1.488       .  S
O677        C682   1.270       .  A
O678        C680   1.269       .  A
C679        O681   1.266       .  A
C679       C1653   1.479       .  S
C680        C741   1.486       .  S
C682       C1269   1.501       .  S
Fe683       O699   2.054       .  S
Fe683       O689   2.083       .  S
Fe683       O696   2.086       .  S
Fe683       O688   2.048       .  S
Fe683       O694   1.978       .  S
Fe684       O687   2.051       .  S
Fe684       O691   2.072       .  S
Fe684       O695   2.032       .  S
Fe684       O700   2.085       .  S
Fe684       O694   1.966       .  S
Fe685       O703   2.066       .  S
Fe685       O690   2.054       .  S
Fe685       O697   2.049       .  S
Fe685       O686   2.060       .  S
Fe685       O694   1.972       .  S
O686        C693   1.266       .  A
O687        C701   1.267       .  A
O688        C693   1.264       .  A
O689        C692   1.273       .  A
O690        C702   1.268       .  A
O691        C704   1.271       .  A
C692        O697   1.266       .  A
C692       C1157   1.486       .  S
C693        C725   1.464       .  S
O695        C698   1.260       .  A
O696        C698   1.273       .  A
C698        C757   1.496       .  S
O699        C704   1.266       .  A
O700        C702   1.270       .  A
C701        O703   1.267       .  A
C701        C818   1.478       .  S
C702        C709   1.499       .  S
C704       C1605   1.487       .  S
C705        C706   1.407       .  A
C705        C710   1.412       .  A
C705        H712   1.083       .  S
C706        C707   1.424       .  A
C707        C708   1.408       .  A
C707        C714   1.523       .  S
C708        C709   1.408       .  A
C708        H713   1.082       .  S
C709        C710   1.422       .  A
C710        C711   1.519       .  S
C711        F715   1.385       .  S
C711        F716   1.382       .  S
C711        F717   1.384       .  S
C714        F718   1.383       .  S
C714        F719   1.383       .  S
C714        F720   1.384       .  S
C721        C722   1.403       .  A
C721        C726   1.404       .  A
C721        H728   1.083       .  S
C722        C723   1.415       .  A
C723        C724   1.402       .  A
C723        C730   1.519       .  S
C724        C725   1.401       .  A
C724        H729   1.083       .  S
C725        C726   1.413       .  A
C726        C727   1.518       .  S
C727        F731   1.384       .  S
C727        F732   1.383       .  S
C727        F733   1.382       .  S
C730        F734   1.382       .  S
C730        F735   1.383       .  S
C730        F736   1.384       .  S
C737        C738   1.407       .  A
C737        C742   1.409       .  A
C737        H744   1.083       .  S
C738        C739   1.422       .  A
C739        C740   1.404       .  A
C739        C746   1.522       .  S
C740        C741   1.404       .  A
C740        H745   1.083       .  S
C741        C742   1.419       .  A
C742        C743   1.520       .  S
C743        F747   1.385       .  S
C743        F748   1.384       .  S
C743        F749   1.382       .  S
C746        F750   1.383       .  S
C746        F751   1.382       .  S
C746        F752   1.385       .  S
C753        C754   1.405       .  A
C753        C758   1.401       .  A
C753        H760   1.080       .  S
C754        C755   1.423       .  A
C755        C756   1.410       .  A
C755        C762   1.522       .  S
C756        C757   1.408       .  A
C756        H761   1.083       .  S
C757        C758   1.427       .  A
C758        C759   1.527       .  S
C759        F763   1.384       .  S
C759        F764   1.384       .  S
C759        F765   1.384       .  S
C762        F766   1.384       .  S
C762        F767   1.379       .  S
C762        F768   1.385       .  S
C769        C770   1.405       .  A
C769        C774   1.401       .  A
C769        H776   1.082       .  S
C770        C771   1.422       .  A
C771        C772   1.411       .  A
C771        C778   1.519       .  S
C772        C773   1.405       .  A
C772        H777   1.083       .  S
C773        C774   1.415       .  A
C774        C775   1.516       .  S
C775        F779   1.384       .  S
C775        F780   1.382       .  S
C775        F781   1.383       .  S
C778        F782   1.384       .  S
C778        F783   1.383       .  S
C778        F784   1.385       .  S
C785        C786   1.406       .  A
C785        C790   1.409       .  A
C785        H792   1.082       .  S
C786        C787   1.424       .  A
C787        C788   1.406       .  A
C787        C794   1.518       .  S
C788        C789   1.401       .  A
C788        H793   1.083       .  S
C789        C790   1.419       .  A
C790        C791   1.519       .  S
C791        F795   1.384       .  S
C791        F796   1.383       .  S
C791        F797   1.384       .  S
C794        F798   1.383       .  S
C794        F799   1.379       .  S
C794        F800   1.385       .  S
C801        C802   1.403       .  A
C801        C806   1.403       .  A
C801        H808   1.083       .  S
C802        C803   1.419       .  A
C803        C804   1.410       .  A
C803        C810   1.520       .  S
C804        C805   1.406       .  A
C804        H809   1.084       .  S
C805        C806   1.422       .  A
C806        C807   1.523       .  S
C807        F811   1.385       .  S
C807        F812   1.384       .  S
C807        F813   1.383       .  S
C810        F814   1.383       .  S
C810        F815   1.384       .  S
C810        F816   1.384       .  S
C817        C818   1.400       .  A
C817        C822   1.401   1_565  A
C817        H824   1.083       .  S
C818        C819   1.416       .  A
C819        C820   1.409   1_565  A
C819        C826   1.519       .  S
C820        C821   1.409       .  A
C820        H825   1.082       .  S
C821        C822   1.425       .  A
C822        C823   1.524       .  S
C823        F827   1.385       .  S
C823        F828   1.383       .  S
C823        F829   1.384       .  S
C826        F830   1.384       .  S
C826        F831   1.382       .  S
C826        F832   1.385       .  S
C833        C834   1.408       .  A
C833        C838   1.410       .  A
C833        H840   1.083       .  S
C834        C835   1.425       .  A
C835        C836   1.405       .  A
C835        C842   1.522       .  S
C836        C837   1.403       .  A
C836        H841   1.083       .  S
C837        C838   1.420       .  A
C838        C839   1.520       .  S
C839        F843   1.385       .  S
C839        F844   1.384       .  S
C839        F845   1.382       .  S
C842        F846   1.383       .  S
C842        F847   1.383       .  S
C842        F848   1.384       .  S
C849        C850   1.406       .  A
C849        C854   1.405       .  A
C849        H856   1.082       .  S
C850        C851   1.418       .  A
C851        C852   1.407       .  A
C851        C858   1.515       .  S
C852        C853   1.406       .  A
C852        H857   1.083       .  S
C853        C854   1.423       .  A
C854        C855   1.523       .  S
C855        F859   1.385       .  S
C855        F860   1.383       .  S
C855        F861   1.384       .  S
C858        F862   1.383       .  S
C858        F863   1.382       .  S
C858        F864   1.385       .  S
C865        C866   1.406       .  A
C865        C870   1.412       .  A
C865        H872   1.083       .  S
C866        C867   1.419       .  A
C867        C868   1.404       .  A
C867        C874   1.522       .  S
C868        C869   1.407       .  A
C868        H873   1.083       .  S
C869        C870   1.422       .  A
C870        C871   1.520       .  S
C871        F875   1.385       .  S
C871        F876   1.382       .  S
C871        F877   1.384       .  S
C874        F878   1.383       .  S
C874        F879   1.382       .  S
C874        F880   1.385       .  S
C881        C882   1.402       .  A
C881        C886   1.407       .  A
C881        H888   1.084       .  S
C882        C883   1.417       .  A
C883        C884   1.406       .  A
C883        C890   1.519       .  S
C884        C885   1.401       .  A
C884        H889   1.084       .  S
C885        C886   1.413       .  A
C886        C887   1.517       .  S
C887        F891   1.384       .  S
C887        F892   1.383       .  S
C887        F893   1.383       .  S
C890        F894   1.382       .  S
C890        F895   1.382       .  S
C890        F896   1.385       .  S
C897        C898   1.406       .  A
C897        C902   1.409   1_565  A
C897        H904   1.084       .  S
C898        C899   1.421       .  A
C899        C900   1.401   1_565  A
C899        C906   1.524       .  S
C900        C901   1.402       .  A
C900        H905   1.084       .  S
C901        C902   1.416       .  A
C902        C903   1.518       .  S
C903        F907   1.385       .  S
C903        F908   1.384       .  S
C903        F909   1.382       .  S
C906        F910   1.383       .  S
C906        F911   1.384       .  S
C906        F912   1.385       .  S
C913        C914   1.403       .  A
C913        C918   1.411       .  A
C913        H920   1.084       .  S
C914        C915   1.419       .  A
C915        C916   1.404       .  A
C915        C922   1.517       .  S
C916        C917   1.401       .  A
C916        H921   1.085       .  S
C917        C918   1.419       .  A
C918        C919   1.519       .  S
C919        F923   1.385       .  S
C919        F924   1.382       .  S
C919        F925   1.384       .  S
C922        F926   1.380       .  S
C922        F927   1.382       .  S
C922        F928   1.384       .  S
C929        C930   1.407       .  A
C929        C934   1.411       .  A
C929        H936   1.083       .  S
C930        C931   1.420       .  A
C931        C932   1.404       .  A
C931        C938   1.522       .  S
C932        C933   1.406       .  A
C932        H937   1.082       .  S
C933        C934   1.420       .  A
C934        C935   1.519       .  S
C935        F939   1.385       .  S
C935        F940   1.382       .  S
C935        F941   1.384       .  S
C938        F942   1.380       .  S
C938        F943   1.382       .  S
C938        F944   1.385       .  S
C945        C946   1.405       .  A
C945        C950   1.404       .  A
C945        H952   1.081       .  S
C946        C947   1.423       .  A
C947        C948   1.402       .  A
C947        C954   1.523       .  S
C948        C949   1.401       .  A
C948        H953   1.082       .  S
C949        C950   1.418       .  A
C950        C951   1.521       .  S
C951        F955   1.385       .  S
C951        F956   1.384       .  S
C951        F957   1.383       .  S
C954        F958   1.382       .  S
C954        F959   1.384       .  S
C954        F960   1.385       .  S
C961        C962   1.405       .  A
C961        C966   1.405   1_655  A
C961        H968   1.083       .  S
C962        C963   1.421       .  A
C963        C964   1.410   1_655  A
C963        C970   1.519       .  S
C964        C965   1.404       .  A
C964        H969   1.083       .  S
C965        C966   1.420       .  A
C966        C967   1.522       .  S
C967        F971   1.385       .  S
C967        F972   1.383       .  S
C967        F973   1.382       .  S
C970        F974   1.382       .  S
C970        F975   1.384       .  S
C970        F976   1.385       .  S
C977        C978   1.403       .  A
C977        C982   1.406   1_655  A
C977        H984   1.083       .  S
C978        C979   1.418       .  A
C979        C980   1.411   1_655  A
C979        C986   1.518       .  S
C980        C981   1.409       .  A
C980        H985   1.083       .  S
C981        C982   1.425       .  A
C982        C983   1.523       .  S
C983        F987   1.385       .  S
C983        F988   1.384       .  S
C983        F989   1.383       .  S
C986        F990   1.382       .  S
C986        F991   1.384       .  S
C986        F992   1.385       .  S
C993        C994   1.401       .  A
C993        C998   1.401       .  A
C993       H1000   1.083       .  S
C994        C995   1.418       .  A
C995        C996   1.408       .  A
C995       C1002   1.520       .  S
C996        C997   1.403       .  A
C996       H1001   1.083       .  S
C997        C998   1.417       .  A
C998        C999   1.521       .  S
C999       F1003   1.385       .  S
C999       F1004   1.381       .  S
C999       F1005   1.384       .  S
C1002      F1006   1.384       .  S
C1002      F1007   1.382       .  S
C1002      F1008   1.384       .  S
C1009      C1010   1.406       .  A
C1009      C1014   1.405       .  A
C1009      H1016   1.081       .  S
C1010      C1011   1.426       .  A
C1011      C1012   1.413       .  A
C1011      C1018   1.521       .  S
C1012      C1013   1.408       .  A
C1012      H1017   1.083       .  S
C1013      C1014   1.425       .  A
C1014      C1015   1.524       .  S
C1015      F1019   1.385       .  S
C1015      F1020   1.384       .  S
C1015      F1021   1.383       .  S
C1018      F1022   1.383       .  S
C1018      F1023   1.383       .  S
C1018      F1024   1.385       .  S
C1025      C1026   1.405       .  A
C1025      C1030   1.401       .  A
C1025      H1032   1.083       .  S
C1026      C1027   1.423       .  A
C1027      C1028   1.409       .  A
C1027      C1034   1.520       .  S
C1028      C1029   1.402       .  A
C1028      H1033   1.083       .  S
C1029      C1030   1.420       .  A
C1030      C1031   1.523       .  S
C1031      F1035   1.385       .  S
C1031      F1036   1.383       .  S
C1031      F1037   1.383       .  S
C1034      F1038   1.384       .  S
C1034      F1039   1.383       .  S
C1034      F1040   1.385       .  S
C1041      C1042   1.408       .  A
C1041      C1046   1.408       .  A
C1041      H1048   1.083       .  S
C1042      C1043   1.423       .  A
C1043      C1044   1.400       .  A
C1043      C1050   1.524       .  S
C1044      C1045   1.404       .  A
C1044      H1049   1.083       .  S
C1045      C1046   1.421       .  A
C1046      C1047   1.521       .  S
C1047      F1051   1.385       .  S
C1047      F1052   1.384       .  S
C1047      F1053   1.383       .  S
C1050      F1054   1.383       .  S
C1050      F1055   1.383       .  S
C1050      F1056   1.384       .  S
C1057      C1058   1.406       .  A
C1057      C1062   1.412       .  A
C1057      H1064   1.084       .  S
C1058      C1059   1.423       .  A
C1059      C1060   1.406       .  A
C1059      C1066   1.524       .  S
C1060      C1061   1.406       .  A
C1060      H1065   1.083       .  S
C1061      C1062   1.422       .  A
C1062      C1063   1.519       .  S
C1063      F1067   1.385       .  S
C1063      F1068   1.384       .  S
C1063      F1069   1.382       .  S
C1066      F1070   1.383       .  S
C1066      F1071   1.384       .  S
C1066      F1072   1.385       .  S
C1073      C1074   1.404       .  A
C1073      C1078   1.411       .  A
C1073      H1080   1.082       .  S
C1074      C1075   1.422       .  A
C1075      C1076   1.408       .  A
C1075      C1082   1.521       .  S
C1076      C1077   1.405       .  A
C1076      H1081   1.083       .  S
C1077      C1078   1.423       .  A
C1078      C1079   1.520       .  S
C1079      F1083   1.385       .  S
C1079      F1084   1.383       .  S
C1079      F1085   1.383       .  S
C1082      F1086   1.382       .  S
C1082      F1087   1.383       .  S
C1082      F1088   1.383       .  S
C1089      C1090   1.404       .  A
C1089      C1094   1.410       .  A
C1089      H1096   1.081       .  S
C1090      C1091   1.425       .  A
C1091      C1092   1.409       .  A
C1091      C1098   1.523       .  S
C1092      C1093   1.408       .  A
C1092      H1097   1.081       .  S
C1093      C1094   1.430       .  A
C1094      C1095   1.523       .  S
C1095      F1099   1.385       .  S
C1095      F1100   1.383       .  S
C1095      F1101   1.384       .  S
C1098      F1102   1.383       .  S
C1098      F1103   1.384       .  S
C1098      F1104   1.385       .  S
C1105      C1106   1.409       .  A
C1105      C1110   1.411       .  A
C1105      H1112   1.082       .  S
C1106      C1107   1.424       .  A
C1107      C1108   1.404       .  A
C1107      C1114   1.524       .  S
C1108      C1109   1.403       .  A
C1108      H1113   1.082       .  S
C1109      C1110   1.416       .  A
C1110      C1111   1.518       .  S
C1111      F1115   1.385       .  S
C1111      F1116   1.382       .  S
C1111      F1117   1.384       .  S
C1114      F1118   1.382       .  S
C1114      F1119   1.383       .  S
C1114      F1120   1.385       .  S
C1121      C1122   1.405       .  A
C1121      C1126   1.408       .  A
C1121      H1128   1.083       .  S
C1122      C1123   1.424       .  A
C1123      C1124   1.409       .  A
C1123      C1130   1.522       .  S
C1124      C1125   1.408       .  A
C1124      H1129   1.082       .  S
C1125      C1126   1.419       .  A
C1126      C1127   1.506       .  S
C1127      F1131   1.385       .  S
C1127      F1132   1.376       .  S
C1127      F1133   1.382       .  S
C1130      F1134   1.383       .  S
C1130      F1135   1.383       .  S
C1130      F1136   1.385       .  S
C1137      C1138   1.396       .  A
C1137      C1142   1.402       .  A
C1137      H1144   1.083       .  S
C1138      C1139   1.419       .  A
C1139      C1140   1.405       .  A
C1139      C1146   1.522       .  S
C1140      C1141   1.405       .  A
C1140      H1145   1.083       .  S
C1141      C1142   1.417       .  A
C1142      C1143   1.504       .  S
C1143      F1147   1.385       .  S
C1143      F1148   1.381       .  S
C1143      F1149   1.383       .  S
C1146      F1150   1.383       .  S
C1146      F1151   1.382       .  S
C1146      F1152   1.385       .  S
C1153      C1154   1.402       .  A
C1153      C1158   1.402       .  A
C1153      H1160   1.084       .  S
C1154      C1155   1.420       .  A
C1155      C1156   1.410       .  A
C1155      C1162   1.519       .  S
C1156      C1157   1.406       .  A
C1156      H1161   1.084       .  S
C1157      C1158   1.423       .  A
C1158      C1159   1.523       .  S
C1159      F1163   1.385       .  S
C1159      F1164   1.383       .  S
C1159      F1165   1.382       .  S
C1162      F1166   1.382       .  S
C1162      F1167   1.384       .  S
C1162      F1168   1.385       .  S
C1169      C1170   1.406       .  A
C1169      C1174   1.414   1_545  A
C1169      H1176   1.083       .  S
C1170      C1171   1.421       .  A
C1171      C1172   1.402   1_545  A
C1171      C1178   1.524       .  S
C1172      C1173   1.405       .  A
C1172      H1177   1.082       .  S
C1173      C1174   1.423       .  A
C1174      C1175   1.519       .  S
C1175      F1179   1.385       .  S
C1175      F1180   1.384       .  S
C1175      F1181   1.382       .  S
C1178      F1182   1.383       .  S
C1178      F1183   1.382       .  S
C1178      F1184   1.385       .  S
C1185      C1186   1.404       .  A
C1185      C1190   1.409       .  A
C1185      H1192   1.083       .  S
C1186      C1187   1.420       .  A
C1187      C1188   1.402       .  A
C1187      C1194   1.522       .  S
C1188      C1189   1.401       .  A
C1188      H1193   1.081       .  S
C1189      C1190   1.418       .  A
C1190      C1191   1.519       .  S
C1191      F1195   1.385       .  S
C1191      F1196   1.384       .  S
C1191      F1197   1.383       .  S
C1194      F1198   1.382       .  S
C1194      F1199   1.382       .  S
C1194      F1200   1.385       .  S
C1201      C1202   1.405       .  A
C1201      C1206   1.410       .  A
C1201      H1208   1.083       .  S
C1202      C1203   1.420       .  A
C1203      C1204   1.402       .  A
C1203      C1210   1.524       .  S
C1204      C1205   1.404       .  A
C1204      H1209   1.082       .  S
C1205      C1206   1.420       .  A
C1206      C1207   1.518       .  S
C1207      F1211   1.385       .  S
C1207      F1212   1.383       .  S
C1207      F1213   1.383       .  S
C1210      F1214   1.384       .  S
C1210      F1215   1.383       .  S
C1210      F1216   1.385       .  S
C1217      C1218   1.404       .  A
C1217      C1222   1.404   1_655  A
C1217      H1224   1.083       .  S
C1218      C1219   1.421       .  A
C1219      C1220   1.410   1_655  A
C1219      C1226   1.520       .  S
C1220      C1221   1.406       .  A
C1220      H1225   1.083       .  S
C1221      C1222   1.423       .  A
C1222      C1223   1.524       .  S
C1223      F1227   1.385       .  S
C1223      F1228   1.383       .  S
C1223      F1229   1.384       .  S
C1226      F1230   1.383       .  S
C1226      F1231   1.383       .  S
C1226      F1232   1.385       .  S
C1233      C1234   1.409       .  A
C1233      C1238   1.412       .  A
C1233      H1240   1.083       .  S
C1234      C1235   1.430       .  A
C1235      C1236   1.406       .  A
C1235      C1242   1.526       .  S
C1236      C1237   1.401       .  A
C1236      H1241   1.083       .  S
C1237      C1238   1.417       .  A
C1238      C1239   1.518       .  S
C1239      F1243   1.384       .  S
C1239      F1244   1.384       .  S
C1239      F1245   1.382       .  S
C1242      F1246   1.383       .  S
C1242      F1247   1.383       .  S
C1242      F1248   1.384       .  S
C1249      C1250   1.407       .  A
C1249      C1254   1.405       .  A
C1249      H1256   1.082       .  S
C1250      C1251   1.427       .  A
C1251      C1252   1.408       .  A
C1251      C1258   1.523       .  S
C1252      C1253   1.407       .  A
C1252      H1257   1.082       .  S
C1253      C1254   1.424       .  A
C1254      C1255   1.523       .  S
C1255      F1259   1.385       .  S
C1255      F1260   1.384       .  S
C1255      F1261   1.384       .  S
C1258      F1262   1.383       .  S
C1258      F1263   1.381       .  S
C1258      F1264   1.385       .  S
C1265      C1266   1.409       .  A
C1265      C1270   1.413   1_655  A
C1265      H1272   1.083       .  S
C1266      C1267   1.425       .  A
C1267      C1268   1.407   1_655  A
C1267      C1274   1.524       .  S
C1268      C1269   1.407       .  A
C1268      H1273   1.082       .  S
C1269      C1270   1.424       .  A
C1270      C1271   1.521       .  S
C1271      F1275   1.385       .  S
C1271      F1276   1.383       .  S
C1271      F1277   1.384       .  S
C1274      F1278   1.384       .  S
C1274      F1279   1.384       .  S
C1274      F1280   1.385       .  S
C1281      C1282   1.403       .  A
C1281      C1286   1.401   1_565  A
C1281      H1288   1.082       .  S
C1282      C1283   1.417       .  A
C1283      C1284   1.407   1_565  A
C1283      C1290   1.519       .  S
C1284      C1285   1.406       .  A
C1284      H1289   1.083       .  S
C1285      C1286   1.422       .  A
C1286      C1287   1.523       .  S
C1287      F1291   1.385       .  S
C1287      F1292   1.383       .  S
C1287      F1293   1.383       .  S
C1290      F1294   1.384       .  S
C1290      F1295   1.382       .  S
C1290      F1296   1.385       .  S
C1297      C1298   1.403       .  A
C1297      C1302   1.406       .  A
C1297      H1304   1.083       .  S
C1298      C1299   1.420       .  A
C1299      C1300   1.408       .  A
C1299      C1306   1.521       .  S
C1300      C1301   1.407       .  A
C1300      H1305   1.083       .  S
C1301      C1302   1.427       .  A
C1302      C1303   1.523       .  S
C1303      F1307   1.385       .  S
C1303      F1308   1.383       .  S
C1303      F1309   1.381       .  S
C1306      F1310   1.384       .  S
C1306      F1311   1.383       .  S
C1306      F1312   1.385       .  S
C1313      C1314   1.403       .  A
C1313      C1318   1.406       .  A
C1313      H1320   1.083       .  S
C1314      C1315   1.417       .  A
C1315      C1316   1.412       .  A
C1315      C1322   1.518       .  S
C1316      C1317   1.405       .  A
C1316      H1321   1.082       .  S
C1317      C1318   1.418       .  A
C1318      C1319   1.521       .  S
C1319      F1323   1.385       .  S
C1319      F1324   1.384       .  S
C1319      F1325   1.382       .  S
C1322      F1326   1.382       .  S
C1322      F1327   1.384       .  S
C1322      F1328   1.385       .  S
C1329      C1330   1.400       .  A
C1329      C1334   1.406       .  A
C1329      H1336   1.083       .  S
C1330      C1331   1.414       .  A
C1331      C1332   1.403       .  A
C1331      C1338   1.519       .  S
C1332      C1333   1.403       .  A
C1332      H1337   1.084       .  S
C1333      C1334   1.417       .  A
C1334      C1335   1.518       .  S
C1335      F1339   1.385       .  S
C1335      F1340   1.382       .  S
C1335      F1341   1.383       .  S
C1338      F1342   1.383       .  S
C1338      F1343   1.381       .  S
C1338      F1344   1.384       .  S
C1345      C1346   1.407       .  A
C1345      C1350   1.408   1_554  A
C1345      H1352   1.082       .  S
C1346      C1347   1.424       .  A
C1347      C1348   1.407   1_554  A
C1347      C1354   1.521       .  S
C1348      C1349   1.407       .  A
C1348      H1353   1.082       .  S
C1349      C1350   1.425       .  A
C1350      C1351   1.521       .  S
C1351      F1355   1.385       .  S
C1351      F1356   1.384       .  S
C1351      F1357   1.380       .  S
C1354      F1358   1.384       .  S
C1354      F1359   1.378       .  S
C1354      F1360   1.385       .  S
C1361      C1362   1.403       .  A
C1361      C1366   1.404   1_556  A
C1361      H1368   1.082       .  S
C1362      C1363   1.422       .  A
C1363      C1364   1.411   1_556  A
C1363      C1370   1.520       .  S
C1364      C1365   1.408       .  A
C1364      H1369   1.082       .  S
C1365      C1366   1.427       .  A
C1366      C1367   1.525       .  S
C1367      F1371   1.385       .  S
C1367      F1372   1.384       .  S
C1367      F1373   1.383       .  S
C1370      F1374   1.383       .  S
C1370      F1375   1.384       .  S
C1370      F1376   1.385       .  S
C1377      C1378   1.405       .  A
C1377      C1382   1.406       .  A
C1377      H1384   1.082       .  S
C1378      C1379   1.420       .  A
C1379      C1380   1.403       .  A
C1379      C1386   1.521       .  S
C1380      C1381   1.405       .  A
C1380      H1385   1.083       .  S
C1381      C1382   1.423       .  A
C1382      C1383   1.521       .  S
C1383      F1387   1.385       .  S
C1383      F1388   1.379       .  S
C1383      F1389   1.383       .  S
C1386      F1390   1.382       .  S
C1386      F1391   1.384       .  S
C1386      F1392   1.385       .  S
C1393      C1394   1.408       .  A
C1393      C1398   1.415       .  A
C1393      H1400   1.083       .  S
C1394      C1395   1.423       .  A
C1395      C1396   1.405       .  A
C1395      C1402   1.524       .  S
C1396      C1397   1.406       .  A
C1396      H1401   1.082       .  S
C1397      C1398   1.422       .  A
C1398      C1399   1.519       .  S
C1399      F1403   1.385       .  S
C1399      F1404   1.383       .  S
C1399      F1405   1.384       .  S
C1402      F1406   1.384       .  S
C1402      F1407   1.383       .  S
C1402      F1408   1.385       .  S
C1409      C1410   1.405       .  A
C1409      C1414   1.410       .  A
C1409      H1416   1.083       .  S
C1410      C1411   1.422       .  A
C1411      C1412   1.404       .  A
C1411      C1418   1.522       .  S
C1412      C1413   1.402       .  A
C1412      H1417   1.083       .  S
C1413      C1414   1.419       .  A
C1414      C1415   1.519       .  S
C1415      F1419   1.385       .  S
C1415      F1420   1.382       .  S
C1415      F1421   1.384       .  S
C1418      F1422   1.383       .  S
C1418      F1423   1.382       .  S
C1418      F1424   1.385       .  S
C1425      C1426   1.403       .  A
C1425      C1430   1.407       .  A
C1425      H1432   1.083       .  S
C1426      C1427   1.419       .  A
C1427      C1428   1.410       .  A
C1427      C1434   1.519       .  S
C1428      C1429   1.406       .  A
C1428      H1433   1.083       .  S
C1429      C1430   1.423       .  A
C1430      C1431   1.521       .  S
C1431      F1435   1.385       .  S
C1431      F1436   1.383       .  S
C1431      F1437   1.382       .  S
C1434      F1438   1.384       .  S
C1434      F1439   1.382       .  S
C1434      F1440   1.385       .  S
C1441      C1442   1.407       .  A
C1441      C1446   1.413       .  A
C1441      H1448   1.083       .  S
C1442      C1443   1.421       .  A
C1443      C1444   1.405       .  A
C1443      C1450   1.522       .  S
C1444      C1445   1.404       .  A
C1444      H1449   1.083       .  S
C1445      C1446   1.422       .  A
C1446      C1447   1.520       .  S
C1447      F1451   1.385       .  S
C1447      F1452   1.384       .  S
C1447      F1453   1.383       .  S
C1450      F1454   1.383       .  S
C1450      F1455   1.384       .  S
C1450      F1456   1.385       .  S
C1457      C1458   1.400       .  A
C1457      C1462   1.401       .  A
C1457      H1464   1.083       .  S
C1458      C1459   1.416       .  A
C1459      C1460   1.409       .  A
C1459      C1466   1.518       .  S
C1460      C1461   1.403       .  A
C1460      H1465   1.084       .  S
C1461      C1462   1.416       .  A
C1462      C1463   1.521       .  S
C1463      F1467   1.385       .  S
C1463      F1468   1.384       .  S
C1463      F1469   1.382       .  S
C1466      F1470   1.382       .  S
C1466      F1471   1.383       .  S
C1466      F1472   1.385       .  S
C1473      C1474   1.402       .  A
C1473      C1478   1.406       .  A
C1473      H1480   1.084       .  S
C1474      C1475   1.419       .  A
C1475      C1476   1.415       .  A
C1475      C1482   1.518       .  S
C1476      C1477   1.405       .  A
C1476      H1481   1.084       .  S
C1477      C1478   1.416       .  A
C1478      C1479   1.517       .  S
C1479      F1483   1.384       .  S
C1479      F1484   1.380       .  S
C1479      F1485   1.384       .  S
C1482      F1486   1.383       .  S
C1482      F1487   1.382       .  S
C1482      F1488   1.385       .  S
C1489      C1490   1.403       .  A
C1489      C1494   1.406       .  A
C1489      H1496   1.083       .  S
C1490      C1491   1.418       .  A
C1491      C1492   1.408       .  A
C1491      C1498   1.519       .  S
C1492      C1493   1.405       .  A
C1492      H1497   1.083       .  S
C1493      C1494   1.423       .  A
C1494      C1495   1.521       .  S
C1495      F1499   1.384       .  S
C1495      F1500   1.382       .  S
C1495      F1501   1.382       .  S
C1498      F1502   1.383       .  S
C1498      F1503   1.384       .  S
C1498      F1504   1.384       .  S
C1505      C1506   1.405       .  A
C1505      C1510   1.410       .  A
C1505      H1512   1.084       .  S
C1506      C1507   1.418       .  A
C1507      C1508   1.400       .  A
C1507      C1514   1.524       .  S
C1508      C1509   1.406       .  A
C1508      H1513   1.083       .  S
C1509      C1510   1.419       .  A
C1510      C1511   1.518       .  S
C1511      F1515   1.385       .  S
C1511      F1516   1.382       .  S
C1511      F1517   1.383       .  S
C1514      F1518   1.383       .  S
C1514      F1519   1.383       .  S
C1514      F1520   1.385       .  S
C1521      C1522   1.407       .  A
C1521      C1526   1.410       .  A
C1521      H1528   1.083       .  S
C1522      C1523   1.424       .  A
C1523      C1524   1.404       .  A
C1523      C1530   1.524       .  S
C1524      C1525   1.403       .  A
C1524      H1529   1.083       .  S
C1525      C1526   1.420       .  A
C1526      C1527   1.520       .  S
C1527      F1531   1.384       .  S
C1527      F1532   1.384       .  S
C1527      F1533   1.383       .  S
C1530      F1534   1.383       .  S
C1530      F1535   1.384       .  S
C1530      F1536   1.385       .  S
C1537      C1538   1.401       .  A
C1537      C1542   1.400       .  A
C1537      H1544   1.083       .  S
C1538      C1539   1.417       .  A
C1539      C1540   1.414       .  A
C1539      C1546   1.517       .  S
C1540      C1541   1.407       .  A
C1540      H1545   1.082       .  S
C1541      C1542   1.421       .  A
C1542      C1543   1.524       .  S
C1543      F1547   1.385       .  S
C1543      F1548   1.382       .  S
C1543      F1549   1.383       .  S
C1546      F1550   1.384       .  S
C1546      F1551   1.382       .  S
C1546      F1552   1.384       .  S
C1553      C1554   1.406       .  A
C1553      C1558   1.410   1_556  A
C1553      H1560   1.082       .  S
C1554      C1555   1.421       .  A
C1555      C1556   1.405   1_556  A
C1555      C1562   1.524       .  S
C1556      C1557   1.409       .  A
C1556      H1561   1.081       .  S
C1557      C1558   1.423       .  A
C1558      C1559   1.520       .  S
C1559      F1563   1.385       .  S
C1559      F1564   1.383       .  S
C1559      F1565   1.383       .  S
C1562      F1566   1.383       .  S
C1562      F1567   1.384       .  S
C1562      F1568   1.385       .  S
C1569      C1570   1.403       .  A
C1569      C1574   1.407       .  A
C1569      H1576   1.084       .  S
C1570      C1571   1.419       .  A
C1571      C1572   1.408       .  A
C1571      C1578   1.520       .  S
C1572      C1573   1.407       .  A
C1572      H1577   1.084       .  S
C1573      C1574   1.425       .  A
C1574      C1575   1.521       .  S
C1575      F1579   1.385       .  S
C1575      F1580   1.383       .  S
C1575      F1581   1.382       .  S
C1578      F1582   1.384       .  S
C1578      F1583   1.383       .  S
C1578      F1584   1.385       .  S
C1585      C1586   1.405       .  A
C1585      C1590   1.414   1_565  A
C1585      H1592   1.084       .  S
C1586      C1587   1.420       .  A
C1587      C1588   1.403   1_565  A
C1587      C1594   1.522       .  S
C1588      C1589   1.403       .  A
C1588      H1593   1.084       .  S
C1589      C1590   1.420       .  A
C1590      C1591   1.517       .  S
C1591      F1595   1.385       .  S
C1591      F1596   1.384       .  S
C1591      F1597   1.382       .  S
C1594      F1598   1.382       .  S
C1594      F1599   1.382       .  S
C1594      F1600   1.385       .  S
C1601      C1602   1.404       .  A
C1601      C1606   1.404   1_556  A
C1601      H1608   1.082       .  S
C1602      C1603   1.419       .  A
C1603      C1604   1.408   1_556  A
C1603      C1610   1.520       .  S
C1604      C1605   1.406       .  A
C1604      H1609   1.083       .  S
C1605      C1606   1.424       .  A
C1606      C1607   1.524       .  S
C1607      F1611   1.385       .  S
C1607      F1612   1.384       .  S
C1607      F1613   1.383       .  S
C1610      F1614   1.383       .  S
C1610      F1615   1.383       .  S
C1610      F1616   1.385       .  S
C1617      C1618   1.404       .  A
C1617      C1622   1.409       .  A
C1617      H1624   1.083       .  S
C1618      C1619   1.418       .  A
C1619      C1620   1.401       .  A
C1619      C1626   1.522       .  S
C1620      C1621   1.402       .  A
C1620      H1625   1.084       .  S
C1621      C1622   1.417       .  A
C1622      C1623   1.518       .  S
C1623      F1627   1.382       .  S
C1623      F1628   1.383       .  S
C1623      F1629   1.385       .  S
C1626      F1630   1.384       .  S
C1626      F1631   1.382       .  S
C1626      F1632   1.385       .  S
C1633      C1634   1.404       .  A
C1633      C1638   1.405       .  A
C1633      H1640   1.083       .  S
C1634      C1635   1.420       .  A
C1635      C1636   1.410       .  A
C1635      C1642   1.519       .  S
C1636      C1637   1.404       .  A
C1636      H1641   1.083       .  S
C1637      C1638   1.419       .  A
C1638      C1639   1.521       .  S
C1639      F1643   1.384       .  S
C1639      F1644   1.383       .  S
C1639      F1645   1.383       .  S
C1642      F1646   1.384       .  S
C1642      F1647   1.383       .  S
C1642      F1648   1.385       .  S
C1649      C1650   1.407       .  A
C1649      C1654   1.413       .  A
C1649      H1656   1.083       .  S
C1650      C1651   1.421       .  A
C1651      C1652   1.399       .  A
C1651      C1658   1.524       .  S
C1652      C1653   1.401       .  A
C1652      H1657   1.083       .  S
C1653      C1654   1.418       .  A
C1654      C1655   1.517       .  S
C1655      F1659   1.385       .  S
C1655      F1660   1.383       .  S
C1655      F1661   1.382       .  S
C1658      F1662   1.382       .  S
C1658      F1663   1.383       .  S
C1658      F1664   1.385       .  S
C1665      C1666   1.405       .  A
C1665      C1670   1.407   1_565  A
C1665      H1672   1.083       .  S
C1666      C1667   1.422       .  A
C1667      C1668   1.402   1_565  A
C1667      C1674   1.524       .  S
C1668      C1669   1.402       .  A
C1668      H1673   1.083       .  S
C1669      C1670   1.419       .  A
C1670      C1671   1.519       .  S
C1671      F1675   1.385       .  S
C1671      F1676   1.382       .  S
C1671      F1677   1.383       .  S
C1674      F1678   1.384       .  S
C1674      F1679   1.383       .  S
C1674      F1680   1.385       .  S
C1681      C1682   1.405       .  A
C1681      C1686   1.410       .  A
C1681      H1688   1.084       .  S
C1682      C1683   1.422       .  A
C1683      C1684   1.406       .  A
C1683      C1690   1.521       .  S
C1684      C1685   1.403       .  A
C1684      H1689   1.084       .  S
C1685      C1686   1.421       .  A
C1686      C1687   1.521       .  S
C1687      F1691   1.385       .  S
C1687      F1692   1.382       .  S
C1687      F1693   1.384       .  S
C1690      F1694   1.382       .  S
C1690      F1695   1.383       .  S
C1690      F1696   1.385       .  S
C1697      C1698   1.403       .  A
C1697      C1702   1.404       .  A
C1697      H1704   1.083       .  S
C1698      C1699   1.417       .  A
C1699      C1700   1.404       .  A
C1699      C1706   1.520       .  S
C1700      C1701   1.405       .  A
C1700      H1705   1.083       .  S
C1701      C1702   1.422       .  A
C1702      C1703   1.522       .  S
C1703      F1707   1.385       .  S
C1703      F1708   1.383       .  S
C1703      F1709   1.382       .  S
C1706      F1710   1.384       .  S
C1706      F1711   1.382       .  S
C1706      F1712   1.385       .  S
C1713      C1714   1.408       .  A
C1713      C1718   1.409       .  A
C1713      H1720   1.083       .  S
C1714      C1715   1.425       .  A
C1715      C1716   1.406       .  A
C1715      C1722   1.523       .  S
C1716      C1717   1.404       .  A
C1716      H1721   1.083       .  S
C1717      C1718   1.420       .  A
C1718      C1719   1.520       .  S
C1719      F1723   1.385       .  S
C1719      F1724   1.383       .  S
C1719      F1725   1.384       .  S
C1722      F1726   1.383       .  S
C1722      F1727   1.383       .  S
C1722      F1728   1.384       .  S
C1729      C1730   1.405       .  A
C1729      C1734   1.411       .  A
C1729      H1736   1.084       .  S
C1730      C1731   1.424       .  A
C1731      C1732   1.406       .  A
C1731      C1738   1.523       .  S
C1732      C1733   1.404       .  A
C1732      H1737   1.083       .  S
C1733      C1734   1.421       .  A
C1734      C1735   1.518       .  S
C1735      F1739   1.385       .  S
C1735      F1740   1.384       .  S
C1735      F1741   1.382       .  S
C1738      F1742   1.383       .  S
C1738      F1743   1.383       .  S
C1738      F1744   1.385       .  S
C1745      C1746   1.403       .  A
C1745      C1750   1.407       .  A
C1745      H1752   1.082       .  S
C1746      C1747   1.422       .  A
C1747      C1748   1.408       .  A
C1747      C1754   1.521       .  S
C1748      C1749   1.408       .  A
C1748      H1753   1.082       .  S
C1749      C1750   1.430       .  A
C1750      C1751   1.525       .  S
C1751      F1755   1.385       .  S
C1751      F1756   1.384       .  S
C1751      F1757   1.384       .  S
C1754      F1758   1.383       .  S
C1754      F1759   1.384       .  S
C1754      F1760   1.385       .  S
C1761      C1762   1.404       .  A
C1761      C1766   1.405       .  A
C1761      H1768   1.083       .  S
C1762      C1763   1.420       .  A
C1763      C1764   1.409       .  A
C1763      C1770   1.519       .  S
C1764      C1765   1.405       .  A
C1764      H1769   1.083       .  S
C1765      C1766   1.425       .  A
C1766      C1767   1.524       .  S
C1767      F1771   1.385       .  S
C1767      F1772   1.383       .  S
C1767      F1773   1.384       .  S
C1770      F1774   1.384       .  S
C1770      F1775   1.382       .  S
C1770      F1776   1.385       .  S
C1777      C1778   1.403       .  A
C1777      C1782   1.403   1_556  A
C1777      H1784   1.083       .  S
C1778      C1779   1.421       .  A
C1779      C1780   1.412   1_556  A
C1779      C1786   1.520       .  S
C1780      C1781   1.405       .  A
C1780      H1785   1.083       .  S
C1781      C1782   1.420       .  A
C1782      C1783   1.522       .  S
C1783      F1787   1.385       .  S
C1783      F1788   1.382       .  S
C1783      F1789   1.383       .  S
C1786      F1790   1.384       .  S
C1786      F1791   1.382       .  S
C1786      F1792   1.385       .  S
C1793      C1794   1.407       .  A
C1793      C1798   1.408       .  A
C1793      H1800   1.083       .  S
C1794      C1795   1.422       .  A
C1795      C1796   1.405       .  A
C1795      C1802   1.521       .  S
C1796      C1797   1.403       .  A
C1796      H1801   1.083       .  S
C1797      C1798   1.417       .  A
C1798      C1799   1.519       .  S
C1799      F1803   1.385       .  S
C1799      F1804   1.382       .  S
C1799      F1805   1.384       .  S
C1802      F1806   1.383       .  S
C1802      F1807   1.382       .  S
C1802      F1808   1.385       .  S
C1809      C1810   1.405       .  A
C1809      C1814   1.408   1_655  A
C1809      H1816   1.083       .  S
C1810      C1811   1.422       .  A
C1811      C1812   1.403   1_655  A
C1811      C1818   1.523       .  S
C1812      C1813   1.403       .  A
C1812      H1817   1.083       .  S
C1813      C1814   1.419       .  A
C1814      C1815   1.517       .  S
C1815      F1819   1.385       .  S
C1815      F1820   1.383       .  S
C1815      F1821   1.381       .  S
C1818      F1822   1.383       .  S
C1818      F1823   1.384       .  S
C1818      F1824   1.385       .  S
C1825      C1826   1.404       .  A
C1825      C1830   1.403   1_556  A
C1825      H1832   1.083       .  S
C1826      C1827   1.423       .  A
C1827      C1828   1.411   1_556  A
C1827      C1834   1.520       .  S
C1828      C1829   1.407       .  A
C1828      H1833   1.083       .  S
C1829      C1830   1.425       .  A
C1830      C1831   1.525       .  S
C1831      F1835   1.385       .  S
C1831      F1836   1.383       .  S
C1831      F1837   1.384       .  S
C1834      F1838   1.383       .  S
C1834      F1839   1.383       .  S
C1834      F1840   1.385       .  S
C1841      C1842   1.405       .  A
C1841      C1846   1.402       .  A
C1841      H1848   1.083       .  S
C1842      C1843   1.419       .  A
C1843      C1844   1.408       .  A
C1843      C1850   1.519       .  S
C1844      C1845   1.405       .  A
C1844      H1849   1.084       .  S
C1845      C1846   1.417       .  A
C1846      C1847   1.521       .  S
C1847      F1851   1.385       .  S
C1847      F1852   1.382       .  S
C1847      F1853   1.382       .  S
C1850      F1854   1.385       .  S
C1850      F1855   1.384       .  S
C1850      F1856   1.382       .  S
C1857      C1858   1.408       .  A
C1857      C1862   1.408       .  A
C1857      H1864   1.082       .  S
C1858      C1859   1.427       .  A
C1859      C1860   1.403       .  A
C1859      C1866   1.526       .  S
C1860      C1861   1.406       .  A
C1860      H1865   1.081       .  S
C1861      C1862   1.424       .  A
C1862      C1863   1.522       .  S
C1863      F1867   1.385       .  S
C1863      F1868   1.383       .  S
C1863      F1869   1.384       .  S
C1866      F1870   1.384       .  S
C1866      F1871   1.384       .  S
C1866      F1872   1.385       .  S
C1873      C1874   1.407       .  A
C1873      C1878   1.409       .  A
C1873      H1880   1.082       .  S
C1874      C1875   1.423       .  A
C1875      C1876   1.403       .  A
C1875      C1882   1.523       .  S
C1876      C1877   1.403       .  A
C1876      H1881   1.082       .  S
C1877      C1878   1.421       .  A
C1878      C1879   1.521       .  S
C1879      F1883   1.385       .  S
C1879      F1884   1.383       .  S
C1879      F1885   1.383       .  S
C1882      F1886   1.384       .  S
C1882      F1887   1.382       .  S
C1882      F1888   1.385       .  S
C1889      C1890   1.410       .  A
C1889      C1894   1.411   1_655  A
C1889      H1896   1.082       .  S
C1890      C1891   1.425       .  A
C1891      C1892   1.411   1_655  A
C1891      C1898   1.523       .  S
C1892      C1893   1.410       .  A
C1892      H1897   1.081       .  S
C1893      C1894   1.425       .  A
C1894      C1895   1.522       .  S
C1895      F1899   1.385       .  S
C1895      F1900   1.383       .  S
C1895      F1901   1.383       .  S
C1898      F1902   1.383       .  S
C1898      F1903   1.383       .  S
C1898      F1904   1.385       .  S
C1905      C1906   1.404       .  A
C1905      C1910   1.408       .  A
C1905      H1912   1.083       .  S
C1906      C1907   1.417       .  A
C1907      C1908   1.410       .  A
C1907      C1914   1.519       .  S
C1908      C1909   1.406       .  A
C1908      H1913   1.083       .  S
C1909      C1910   1.418       .  A
C1910      C1911   1.519       .  S
C1911      F1915   1.384       .  S
C1911      F1916   1.382       .  S
C1911      F1917   1.383       .  S
C1914      F1918   1.384       .  S
C1914      F1919   1.382       .  S
C1914      F1920   1.385       .  S
C1921      C1922   1.409       .  A
C1921      C1926   1.409       .  A
C1921      H1928   1.082       .  S
C1922      C1923   1.425       .  A
C1923      C1924   1.408       .  A
C1923      C1930   1.524       .  S
C1924      C1925   1.410       .  A
C1924      H1929   1.081       .  S
C1925      C1926   1.424       .  A
C1926      C1927   1.522       .  S
C1927      F1931   1.385       .  S
C1927      F1932   1.383       .  S
C1927      F1933   1.384       .  S
C1930      F1934   1.383       .  S
C1930      F1935   1.383       .  S
C1930      F1936   1.385       .  S
C1937      C1938   1.404       .  A
C1937      C1942   1.402       .  A
C1937      H1944   1.082       .  S
C1938      C1939   1.421       .  A
C1939      C1940   1.409       .  A
C1939      C1946   1.520       .  S
C1940      C1941   1.406       .  A
C1940      H1945   1.082       .  S
C1941      C1942   1.423       .  A
C1942      C1943   1.524       .  S
C1943      F1947   1.385       .  S
C1943      F1948   1.383       .  S
C1943      F1949   1.383       .  S
C1946      F1950   1.383       .  S
C1946      F1951   1.383       .  S
C1946      F1952   1.385       .  S
C1953      C1954   1.409       .  A
C1953      C1958   1.410       .  A
C1953      H1960   1.082       .  S
C1954      C1955   1.427       .  A
C1955      C1956   1.405       .  A
C1955      C1962   1.524       .  S
C1956      C1957   1.405       .  A
C1956      H1961   1.082       .  S
C1957      C1958   1.425       .  A
C1958      C1959   1.522       .  S
C1959      F1963   1.384       .  S
C1959      F1964   1.383       .  S
C1959      F1965   1.385       .  S
C1962      F1966   1.384       .  S
C1962      F1967   1.384       .  S
C1962      F1968   1.385       .  S
C1969      C1970   1.407       .  A
C1969      C1974   1.403       .  A
C1969      H1976   1.083       .  S
C1970      C1971   1.423       .  A
C1971      C1972   1.410       .  A
C1971      C1978   1.520       .  S
C1972      C1973   1.404       .  A
C1972      H1977   1.084       .  S
C1973      C1974   1.418       .  A
C1974      C1975   1.523       .  S
C1975      F1979   1.385       .  S
C1975      F1980   1.383       .  S
C1975      F1981   1.384       .  S
C1978      F1982   1.384       .  S
C1978      F1983   1.383       .  S
C1978      F1984   1.385       .  S
C1985      C1986   1.408       .  A
C1985      C1990   1.411       .  A
C1985      H1992   1.083       .  S
C1986      C1987   1.423       .  A
C1987      C1988   1.404       .  A
C1987      C1994   1.524       .  S
C1988      C1989   1.405       .  A
C1988      H1993   1.082       .  S
C1989      C1990   1.420       .  A
C1990      C1991   1.519       .  S
C1991      F1995   1.385       .  S
C1991      F1996   1.384       .  S
C1991      F1997   1.382       .  S
C1994      F1998   1.383       .  S
C1994      F1999   1.384       .  S
C1994      F2000   1.385       .  S
C2001      C2002   1.408       .  A
C2001      C2006   1.407       .  A
C2001      H2008   1.083       .  S
C2002      C2003   1.420       .  A
C2003      C2004   1.404       .  A
C2003      C2010   1.523       .  S
C2004      C2005   1.407       .  A
C2004      H2009   1.082       .  S
C2005      C2006   1.418       .  A
C2006      C2007   1.520       .  S
C2007      F2011   1.385       .  S
C2007      F2012   1.383       .  S
C2007      F2013   1.383       .  S
C2010      F2014   1.384       .  S
C2010      F2015   1.383       .  S
C2010      F2016   1.385       .  S
C2017      C2018   1.405       .  A
C2017      C2022   1.411   1_655  A
C2017      H2024   1.083       .  S
C2018      C2019   1.423       .  A
C2019      C2020   1.407   1_655  A
C2019      C2026   1.523       .  S
C2020      C2021   1.404       .  A
C2020      H2025   1.083       .  S
C2021      C2022   1.421       .  A
C2022      C2023   1.519       .  S
C2023      F2027   1.385       .  S
C2023      F2028   1.382       .  S
C2023      F2029   1.384       .  S
C2026      F2030   1.384       .  S
C2026      F2031   1.383       .  S
C2026      F2032   1.385       .  S
C2033      C2034   1.406       .  A
C2033      C2038   1.414   1_556  A
C2033      H2040   1.083       .  S
C2034      C2035   1.419       .  A
C2035      C2036   1.406   1_556  A
C2035      C2042   1.522       .  S
C2036      C2037   1.408       .  A
C2036      H2041   1.082       .  S
C2037      C2038   1.422       .  A
C2038      C2039   1.519       .  S
C2039      F2043   1.385       .  S
C2039      F2044   1.382       .  S
C2039      F2045   1.384       .  S
C2042      F2046   1.384       .  S
C2042      F2047   1.382       .  S
C2042      F2048   1.385       .  S
C2049      C2050   1.407       .  A
C2049      C2054   1.406       .  A
C2049      H2056   1.083       .  S
C2050      C2051   1.421       .  A
C2051      C2052   1.407       .  A
C2051      C2058   1.521       .  S
C2052      C2053   1.403       .  A
C2052      H2057   1.083       .  S
C2053      C2054   1.415       .  A
C2054      C2055   1.520       .  S
C2055      F2059   1.384       .  S
C2055      F2060   1.383       .  S
C2055      F2061   1.384       .  S
C2058      F2062   1.383       .  S
C2058      F2063   1.382       .  S
C2058      F2064   1.385       .  S
C2065      C2066   1.406       .  A
C2065      C2070   1.413       .  A
C2065      H2072   1.084       .  S
C2066      C2067   1.419       .  A
C2067      C2068   1.404       .  A
C2067      C2074   1.522       .  S
C2068      C2069   1.405       .  A
C2068      H2073   1.083       .  S
C2069      C2070   1.420       .  A
C2070      C2071   1.518       .  S
C2071      F2075   1.385       .  S
C2071      F2076   1.384       .  S
C2071      F2077   1.382       .  S
C2074      F2078   1.382       .  S
C2074      F2079   1.383       .  S
C2074      F2080   1.385       .  S
C2081      C2082   1.407       .  A
C2081      C2086   1.409   1_565  A
C2081      H2088   1.083       .  S
C2082      C2083   1.428       .  A
C2083      C2084   1.407   1_565  A
C2083      C2090   1.524       .  S
C2084      C2085   1.404       .  A
C2084      H2089   1.082       .  S
C2085      C2086   1.421       .  A
C2086      C2087   1.520       .  S
C2087      F2091   1.385       .  S
C2087      F2092   1.384       .  S
C2087      F2093   1.383       .  S
C2090      F2094   1.384       .  S
C2090      F2095   1.384       .  S
C2090      F2096   1.385       .  S
C2097      C2098   1.408       .  A
C2097      C2102   1.404   1_556  A
C2097      H2104   1.082       .  S
C2098      C2099   1.425       .  A
C2099      C2100   1.412   1_556  A
C2099      C2106   1.520       .  S
C2100      C2101   1.406       .  A
C2100      H2105   1.082       .  S
C2101      C2102   1.420       .  A
C2102      C2103   1.523       .  S
C2103      F2107   1.385       .  S
C2103      F2108   1.383       .  S
C2103      F2109   1.383       .  S
C2106      F2110   1.383       .  S
C2106      F2111   1.383       .  S
C2106      F2112   1.385       .  S
C2113      C2114   1.403       .  A
C2113      C2118   1.408       .  A
C2113      H2120   1.082       .  S
C2114      C2115   1.414       .  A
C2115      C2116   1.404       .  A
C2115      C2122   1.519       .  S
C2116      C2117   1.402       .  A
C2116      H2121   1.083       .  S
C2117      C2118   1.413       .  A
C2118      C2119   1.517       .  S
C2119      F2123   1.384       .  S
C2119      F2124   1.384       .  S
C2119      F2125   1.383       .  S
C2122      F2126   1.382       .  S
C2122      F2127   1.383       .  S
C2122      F2128   1.384       .  S
C2129      C2130   1.404       .  A
C2129      C2134   1.408       .  A
C2129      H2136   1.083       .  S
C2130      C2131   1.418       .  A
C2131      C2132   1.407       .  A
C2131      C2138   1.520       .  S
C2132      C2133   1.404       .  A
C2132      H2137   1.083       .  S
C2133      C2134   1.421       .  A
C2134      C2135   1.520       .  S
C2135      F2139   1.385       .  S
C2135      F2140   1.382       .  S
C2135      F2141   1.382       .  S
C2138      F2142   1.382       .  S
C2138      F2143   1.384       .  S
C2138      F2144   1.385       .  S
C2145      C2146   1.404       .  A
C2145      C2150   1.405       .  A
C2145      H2152   1.082       .  S
C2146      C2147   1.418       .  A
C2147      C2148   1.412       .  A
C2147      C2154   1.518       .  S
C2148      C2149   1.408       .  A
C2148      H2153   1.083       .  S
C2149      C2150   1.421       .  A
C2150      C2151   1.522       .  S
C2151      F2155   1.385       .  S
C2151      F2156   1.384       .  S
C2151      F2157   1.382       .  S
C2154      F2158   1.383       .  S
C2154      F2159   1.384       .  S
C2154      F2160   1.384       .  S
C2161      C2162   1.404       .  A
C2161      C2166   1.405   1_655  A
C2161      H2168   1.084       .  S
C2162      C2163   1.418       .  A
C2163      C2164   1.413   1_655  A
C2163      C2170   1.518       .  S
C2164      C2165   1.408       .  A
C2164      H2169   1.084       .  S
C2165      C2166   1.420       .  A
C2166      C2167   1.521       .  S
C2167      F2171   1.385       .  S
C2167      F2172   1.384       .  S
C2167      F2173   1.382       .  S
C2170      F2174   1.382       .  S
C2170      F2175   1.384       .  S
C2170      F2176   1.385       .  S
C2177      C2178   1.408       .  A
C2177      C2182   1.410   1_565  A
C2177      H2184   1.082       .  S
C2178      C2179   1.423       .  A
C2179      C2180   1.404   1_565  A
C2179      C2186   1.523       .  S
C2180      C2181   1.403       .  A
C2180      H2185   1.082       .  S
C2181      C2182   1.420       .  A
C2182      C2183   1.520       .  S
C2183      F2187   1.385       .  S
C2183      F2188   1.384       .  S
C2183      F2189   1.382       .  S
C2186      F2190   1.383       .  S
C2186      F2191   1.384       .  S
C2186      F2192   1.385       .  S
C2193      C2194   1.407       .  A
C2193      C2198   1.408       .  A
C2193      H2200   1.080       .  S
C2194      C2195   1.424       .  A
C2195      C2196   1.408       .  A
C2195      C2202   1.522       .  S
C2196      C2197   1.409       .  A
C2196      H2201   1.081       .  S
C2197      C2198   1.427       .  A
C2198      C2199   1.523       .  S
C2199      F2203   1.385       .  S
C2199      F2204   1.383       .  S
C2199      F2205   1.384       .  S
C2202      F2206   1.383       .  S
C2202      F2207   1.384       .  S
C2202      F2208   1.385       .  S
C2209      C2210   1.400       .  A
C2209      C2214   1.403       .  A
C2209      H2216   1.085       .  S
C2210      C2211   1.416       .  A
C2211      C2212   1.407       .  A
C2211      C2218   1.518       .  S
C2212      C2213   1.404       .  A
C2212      H2217   1.084       .  S
C2213      C2214   1.422       .  A
C2214      C2215   1.522       .  S
C2215      F2219   1.385       .  S
C2215      F2220   1.382       .  S
C2215      F2221   1.382       .  S
C2218      F2222   1.382       .  S
C2218      F2223   1.384       .  S
C2218      F2224   1.385       .  S
C2225      C2226   1.406       .  A
C2225      C2230   1.412       .  A
C2225      H2232   1.083       .  S
C2226      C2227   1.425       .  A
C2227      C2228   1.406       .  A
C2227      C2234   1.521       .  S
C2228      C2229   1.403       .  A
C2228      H2233   1.083       .  S
C2229      C2230   1.424       .  A
C2230      C2231   1.520       .  S
C2231      F2235   1.385       .  S
C2231      F2236   1.383       .  S
C2231      F2237   1.384       .  S
C2234      F2238   1.384       .  S
C2234      F2239   1.383       .  S
C2234      F2240   1.385       .  S
