geometry optimzed in LAMMPS
_audit_creation_date              2020-11-30 
_audit_creation_method            'lammps2cif' 
_symmetry_space_group_name_H-M    'P1' 
_symmetry_Int_Tables_number       1 
_symmetry_cell_setting            triclinic 
loop_ 
_symmetry_equiv_pos_as_xyz 
  x,y,z 
_cell_length_a                    34.65109886 
_cell_length_b                    34.65826002686842 
_cell_length_c                    25.984445374819277 
_cell_angle_alpha                 90.00250101929115 
_cell_angle_beta                  89.99863744045774 
_cell_angle_gamma                 120.05843681339847 
loop_ 
_atom_site_label 
_atom_site_type_symbol 
_atom_site_fract_x 
_atom_site_fract_y 
_atom_site_fract_z 
_atom_site_charge 
Fe1        Fe  0.19907955  0.30011434  0.25000344     1.65800
Fe2        Fe  0.09989444  0.30005495  0.25002953     1.73200
Fe3        Fe  0.19915847  0.39927843  0.25002381     1.54400
O4          O  0.24308346  0.40380938  0.30656528    -0.74200
O5          O  0.09544067  0.33918579  0.19311327    -0.72500
O6          O  0.24269564  0.33922738  0.30692070    -0.76700
O7          O  0.24301706  0.33951931  0.19347728    -0.71600
O8          O  0.16004303  0.40374264  0.30693933    -0.73300
O9          O  0.09534239  0.25612298  0.19347786    -0.76100
C10         C  0.25672680  0.37856082  0.17663288     1.04700
C11         C  0.25672661  0.37843462  0.32339488     1.12100
O12         O  0.16604037  0.33314978  0.25001897    -1.05100
O13         O  0.09539684  0.25644891  0.30695768    -0.67500
O14         O  0.15966652  0.25618375  0.30651965    -0.71000
O15         O  0.24276175  0.40377859  0.19309239    -0.71700
C16         C  0.12062429  0.24247977  0.32338735     1.03600
O17         O  0.15994511  0.25652255  0.19309196    -0.69600
O18         O  0.09541021  0.33946532  0.30657276    -0.74800
C19         C  0.12069081  0.37841015  0.17666399     1.06200
C20         C  0.12081354  0.37852346  0.32340080     1.12100
O21         O  0.15975671  0.40378157  0.19349932    -0.70500
C22         C  0.12072566  0.24248757  0.17663400     1.10400
C23         C  0.13605577  0.06811284  0.07800115     0.05000
C24         C  0.43144801  0.36362506  0.42205074     0.05000
C25         C  0.13606724  0.06814697  0.42203970     0.05000
C26         C  0.06778302  0.43182679  0.42206369     0.05000
C27         C  0.06774271  0.43179277  0.07799858     0.05000
C28         C  0.43140859  0.36363532  0.07800369     0.05000
C29         C  0.36315918  0.43160463  0.07799393     0.05000
C30         C  0.06777903  0.13607624  0.42203183     0.05000
C31         C  0.43144377  0.06787522  0.42203034     0.05000
C32         C  0.36315987  0.43155402  0.42203310     0.05000
C33         C  0.43147367  0.06792562  0.07796491     0.05000
C34         C  0.06780735  0.13608293  0.07798483     0.05000
Fe35       Fe  0.39932533  0.19966052  0.25001815     1.65800
Fe36       Fe  0.30013463  0.19959019  0.25001458     1.73200
Fe37       Fe  0.30006756  0.10043174  0.25000804     1.54400
O38         O  0.33946786  0.09593820  0.19347245    -0.74200
O39         O  0.25652360  0.16046934  0.30693006    -0.72500
O40         O  0.40378049  0.16053752  0.19308915    -0.76700
O41         O  0.40382002  0.16024867  0.30654928    -0.71600
O42         O  0.25645759  0.09593021  0.19308597    -0.73300
O43         O  0.33954782  0.24351875  0.30653472    -0.76100
C44         C  0.37842091  0.12118794  0.32337116     1.04700
C45         C  0.37853159  0.12131367  0.17663474     1.12100
O46         O  0.33317961  0.16656032  0.25001360    -1.05100
O47         O  0.33926241  0.24318888  0.19310623    -0.67500
O48         O  0.40386817  0.24359469  0.19347854    -0.71000
O49         O  0.33919081  0.09596801  0.30691184    -0.71700
C50         C  0.37848170  0.25722851  0.17664400     1.03600
O51         O  0.40382033  0.24325896  0.30695757    -0.69600
O52         O  0.25619724  0.16018691  0.19348749    -0.74800
C53         C  0.24249841  0.12126223  0.32339816     1.06200
C54         C  0.24248928  0.12114697  0.17663591     1.12100
O55         O  0.25614511  0.09589194  0.30655983    -0.70500
C56         C  0.37859142  0.25722377  0.32339736     1.10400
C57         C  0.39575588  0.10403003  0.13849927    -0.05800
C58         C  0.41143969  0.08816394  0.10977276    -0.07400
C59         C  0.01977392  0.10952595  0.08807939    -0.05800
C60         C  0.47950102  0.08941301  0.08807045    -0.07400
C61         C  0.41138032  0.08807825  0.39021493    -0.05800
C62         C  0.39565922  0.10390894  0.36149364    -0.07400
C63         C  0.42568643  0.07370475  0.02320816    -0.05800
C64         C  0.42567043  0.07368219  0.47678414    -0.07400
C65         C  0.40979502  0.01984734  0.41190244    -0.05800
C66         C  0.38963947  0.47958092  0.41190732    -0.07400
C67         C  0.07358290  0.14763021  0.47679610    -0.05800
C68         C  0.07359969  0.14763237  0.02322038    -0.07200
C69         C  0.01974595  0.10950202  0.41193707    -0.05800
C70         C  0.47947248  0.08937739  0.41192211    -0.07400
C71         C  0.38965104  0.47963446  0.08810090    -0.05800
C72         C  0.40981064  0.01990069  0.08811078    -0.07400
C73         C  0.35161095  0.42578476  0.02322602    -0.05800
C74         C  0.35161124  0.42576302  0.47680089    -0.07400
C75         C  0.41136762  0.32332079  0.10977984    -0.05800
C76         C  0.39570668  0.29175017  0.13850322    -0.07400
C77         C  0.40975855  0.38997835  0.08819438    -0.05800
C78         C  0.38959149  0.41005120  0.08819406    -0.07400
C79         C  0.01971436  0.41030309  0.08810152    -0.05800
C80         C  0.47944128  0.39019011  0.08810551    -0.07400
C81         C  0.07355252  0.42602688  0.47681947    -0.05800
C82         C  0.07353271  0.42600728  0.02324344    -0.07400
C83         C  0.20797515  0.10401785  0.36154697    -0.05800
C84         C  0.17639648  0.08828100  0.39027032    -0.07400
C85         C  0.10962427  0.08968989  0.41184795    -0.05800
C86         C  0.08944751  0.10975265  0.41183219    -0.07400
C87         C  0.08942857  0.47985253  0.41192890    -0.05800
C88         C  0.10958492  0.02011862  0.41192220    -0.07400
C89         C  0.39580229  0.29174020  0.36154698    -0.05800
C90         C  0.41143355  0.32330818  0.39027604    -0.07400
C91         C  0.42564112  0.35207682  0.47681552    -0.05800
C92         C  0.42562188  0.35208046  0.02323978    -0.07400
C93         C  0.47948184  0.39019372  0.41195793    -0.05800
C94         C  0.01975522  0.41031869  0.41194815    -0.07400
C95         C  0.38960659  0.41001285  0.41185174    -0.05800
C96         C  0.40978447  0.38995131  0.41184527    -0.07400
C97         C  0.17638274  0.08821790  0.10977206    -0.05800
C98         C  0.20796272  0.10391535  0.13849267    -0.07400
C99         C  0.08940115  0.47981912  0.08813594    -0.05800
C100        C  0.10955975  0.02008515  0.08811472    -0.07400
C101        C  0.14760643  0.07392514  0.02323383    -0.05800
C102        C  0.14761193  0.07394482  0.47680856    -0.07400
C103        C  0.10962762  0.08967250  0.08819489    -0.05800
C104        C  0.08945994  0.10974468  0.08818638    -0.07400
C105        C  0.10346612  0.39569853  0.13853649    -0.05800
C106        C  0.08778036  0.41156262  0.10981201    -0.07400
C107        C  0.32283143  0.41149776  0.10976490    -0.05800
C108        C  0.29125197  0.39579454  0.13848700    -0.07400
C109        C  0.08785379  0.41162587  0.39025582    -0.05800
C110        C  0.10357961  0.39580012  0.36153226    -0.07400
C111        C  0.29125228  0.39567437  0.36154031    -0.05800
C112        C  0.32283210  0.41141226  0.39026175    -0.07400
C113        C  0.10349773  0.20796916  0.13848700    -0.05800
C114        C  0.08784036  0.17639955  0.10975995    -0.07400
C115        C  0.08778913  0.17639077  0.39025579    -0.05800
C116        C  0.10341475  0.20795976  0.36153046    -0.07400
Fe117      Fe  0.19907961  0.30011439  0.75000344     1.65800
Fe118      Fe  0.09989467  0.30005513  0.75002962     1.73200
Fe119      Fe  0.19915858  0.39927857  0.75002382     1.54400
O120        O  0.24308354  0.40380951  0.80656531    -0.74200
O121        O  0.09544075  0.33918597  0.69311344    -0.72500
O122        O  0.24269562  0.33922743  0.80692061    -0.76700
O123        O  0.24301713  0.33951942  0.69347729    -0.71600
O124        O  0.16004304  0.40374283  0.80693928    -0.73300
O125        O  0.09534250  0.25612313  0.69347797    -0.76100
C126        C  0.25672683  0.37856082  0.67663295     1.04700
C127        C  0.25672676  0.37843474  0.82339483     1.12100
O128        O  0.16604057  0.33314993  0.75001900    -1.05100
O129        O  0.09539694  0.25644900  0.80695776    -0.67500
O130        O  0.15966658  0.25618380  0.80651959    -0.71000
O131        O  0.24276181  0.40377868  0.69309244    -0.71700
C132        C  0.12062430  0.24247969  0.82338729     1.03600
O133        O  0.15994521  0.25652271  0.69309195    -0.69600
O134        O  0.09541034  0.33946543  0.80657289    -0.74800
C135        C  0.12069094  0.37841030  0.67666403     1.06200
C136        C  0.12081363  0.37852362  0.82340089     1.12100
O137        O  0.15975683  0.40378166  0.69349919    -0.70500
C138        C  0.12072571  0.24248769  0.67663394     1.10400
C139        C  0.13605587  0.06811295  0.57800102     0.05000
C140        C  0.43144803  0.36362502  0.92205078     0.05000
C141        C  0.13606726  0.06814699  0.92203982     0.05000
C142        C  0.06778302  0.43182684  0.92206374     0.05000
C143        C  0.06774277  0.43179283  0.57799855     0.05000
C144        C  0.43140865  0.36363540  0.57800369     0.05000
C145        C  0.36315929  0.43160470  0.57799402     0.05000
C146        C  0.06777904  0.13607627  0.92203188     0.05000
C147        C  0.43144373  0.06787528  0.92203035     0.05000
C148        C  0.36315992  0.43155407  0.92203293     0.05000
C149        C  0.43147361  0.06792555  0.57796484     0.05000
C150        C  0.06780733  0.13608292  0.57798491     0.05000
Fe151      Fe  0.39932539  0.19966060  0.75001840     1.65800
Fe152      Fe  0.30013471  0.19959032  0.75001466     1.73200
Fe153      Fe  0.30006769  0.10043186  0.75000807     1.54400
O154        O  0.33946799  0.09593845  0.69347246    -0.74200
O155        O  0.25652377  0.16046949  0.80693017    -0.72500
O156        O  0.40378060  0.16053768  0.69308923    -0.76700
O157        O  0.40382018  0.16024881  0.80654953    -0.71600
O158        O  0.25645778  0.09593038  0.69308592    -0.73300
O159        O  0.33954791  0.24351889  0.80653474    -0.76100
C160        C  0.37842111  0.12118809  0.82337134     1.04700
C161        C  0.37853174  0.12131398  0.67663481     1.12100
O162        O  0.33317965  0.16656040  0.75001374    -1.05100
O163        O  0.33926249  0.24318897  0.69310633    -0.67500
O164        O  0.40386823  0.24359482  0.69347877    -0.71000
O165        O  0.33919092  0.09596816  0.80691185    -0.71700
C166        C  0.37848188  0.25722856  0.67664413     1.03600
O167        O  0.40382044  0.24325909  0.80695774    -0.69600
O168        O  0.25619721  0.16018696  0.69348768    -0.74800
C169        C  0.24249856  0.12126240  0.82339814     1.06200
C170        C  0.24248943  0.12114724  0.67663598     1.12100
O171        O  0.25614514  0.09589203  0.80655975    -0.70500
C172        C  0.37859158  0.25722402  0.82339750     1.10400
C173        C  0.39575599  0.10403013  0.63849925    -0.05800
C174        C  0.41143971  0.08816403  0.60977280    -0.07400
C175        C  0.01977390  0.10952588  0.58807947    -0.05800
C176        C  0.47950100  0.08941295  0.58807050    -0.07400
C177        C  0.41138045  0.08807833  0.89021493    -0.05800
C178        C  0.39565915  0.10390902  0.86149365    -0.07400
C179        C  0.42568639  0.07370476  0.52320808    -0.05800
C180        C  0.42567041  0.07368216  0.97678422    -0.07400
C181        C  0.40979493  0.01984728  0.91190240    -0.05800
C182        C  0.38963948  0.47958103  0.91190731    -0.07400
C183        C  0.07358288  0.14763025  0.97679607    -0.05800
C184        C  0.07359968  0.14763230  0.52322034    -0.07200
C185        C  0.01974585  0.10950193  0.91193720    -0.05800
C186        C  0.47947245  0.08937748  0.91192197    -0.07400
C187        C  0.38965120  0.47963455  0.58810089    -0.05800
C188        C  0.40981068  0.01990071  0.58811095    -0.07400
C189        C  0.35161099  0.42578482  0.52322614    -0.05800
C190        C  0.35161127  0.42576313  0.97680081    -0.07400
C191        C  0.41136769  0.32332081  0.60977979    -0.05800
C192        C  0.39570677  0.29175026  0.63850312    -0.07400
C193        C  0.40975855  0.38997836  0.58819452    -0.05800
C194        C  0.38959149  0.41005121  0.58819401    -0.07400
C195        C  0.01971437  0.41030308  0.58810151    -0.05800
C196        C  0.47944128  0.39019011  0.58810553    -0.07400
C197        C  0.07355249  0.42602682  0.97681954    -0.05800
C198        C  0.07353266  0.42600724  0.52324341    -0.07400
C199        C  0.20797526  0.10401790  0.86154712    -0.05800
C200        C  0.17639652  0.08828087  0.89027023    -0.07400
C201        C  0.10962423  0.08968987  0.91184812    -0.05800
C202        C  0.08944745  0.10975260  0.91183219    -0.07400
C203        C  0.08942848  0.47985244  0.91192887    -0.05800
C204        C  0.10958496  0.02011867  0.91192225    -0.07400
C205        C  0.39580232  0.29174023  0.86154697    -0.05800
C206        C  0.41143365  0.32330835  0.89027611    -0.07400
C207        C  0.42564108  0.35207676  0.97681556    -0.05800
C208        C  0.42562184  0.35208043  0.52323981    -0.07400
C209        C  0.47948190  0.39019371  0.91195810    -0.05800
C210        C  0.01975523  0.41031873  0.91194810    -0.07400
C211        C  0.38960663  0.41001281  0.91185182    -0.05800
C212        C  0.40978457  0.38995137  0.91184522    -0.07400
C213        C  0.17638289  0.08821801  0.60977208    -0.05800
C214        C  0.20796286  0.10391557  0.63849269    -0.07400
C215        C  0.08940128  0.47981919  0.58813605    -0.05800
C216        C  0.10955976  0.02008525  0.58811460    -0.07400
C217        C  0.14760649  0.07392524  0.52323381    -0.05800
C218        C  0.14761189  0.07394472  0.97680857    -0.07400
C219        C  0.10962775  0.08967256  0.58819501    -0.05800
C220        C  0.08946000  0.10974471  0.58818635    -0.07400
C221        C  0.10346615  0.39569856  0.63853638    -0.05800
C222        C  0.08778026  0.41156246  0.60981192    -0.07400
C223        C  0.32283145  0.41149769  0.60976490    -0.05800
C224        C  0.29125213  0.39579468  0.63848692    -0.07400
C225        C  0.08785382  0.41162601  0.89025586    -0.05800
C226        C  0.10357968  0.39580027  0.86153230    -0.07400
C227        C  0.29125222  0.39567435  0.86154040    -0.05800
C228        C  0.32283216  0.41141232  0.89026181    -0.07400
C229        C  0.10349774  0.20796935  0.63848702    -0.05800
C230        C  0.08784024  0.17639955  0.60975996    -0.07400
C231        C  0.08778915  0.17639069  0.89025574    -0.05800
C232        C  0.10341484  0.20795968  0.86153031    -0.07400
Fe233      Fe  0.19907968  0.80011433  0.25000344     1.65800
Fe234      Fe  0.09989457  0.80005502  0.25002955     1.73200
Fe235      Fe  0.19915852  0.89927846  0.25002388     1.54400
O236        O  0.24308345  0.90380933  0.30656536    -0.74200
O237        O  0.09544075  0.83918584  0.19311322    -0.72500
O238        O  0.24269576  0.83922739  0.30692069    -0.76700
O239        O  0.24301716  0.83951936  0.19347725    -0.71600
O240        O  0.16004305  0.90374270  0.30693941    -0.73300
O241        O  0.09534251  0.75612310  0.19347791    -0.76100
C242        C  0.25672670  0.87856087  0.17663286     1.04700
C243        C  0.25672658  0.87843456  0.32339487     1.12100
O244        O  0.16604048  0.83314981  0.25001895    -1.05100
O245        O  0.09539702  0.75644905  0.30695770    -0.67500
O246        O  0.15966662  0.75618368  0.30651970    -0.71000
O247        O  0.24276171  0.90377856  0.19309239    -0.71700
C248        C  0.12062440  0.74247969  0.32338736     1.03600
O249        O  0.15994517  0.75652251  0.19309197    -0.69600
O250        O  0.09541029  0.83946534  0.30657276    -0.74800
C251        C  0.12069095  0.87841026  0.17666402     1.06200
C252        C  0.12081358  0.87852345  0.32340078     1.12100
O253        O  0.15975674  0.90378164  0.19349936    -0.70500
C254        C  0.12072570  0.74248759  0.17663405     1.10400
C255        C  0.13605579  0.56811292  0.07800111     0.05000
C256        C  0.43144800  0.86362498  0.42205073     0.05000
C257        C  0.13606724  0.56814699  0.42203968     0.05000
C258        C  0.06778306  0.93182683  0.42206372     0.05000
C259        C  0.06774255  0.93179266  0.07799862     0.05000
C260        C  0.43140853  0.86363529  0.07800368     0.05000
C261        C  0.36315923  0.93160465  0.07799393     0.05000
C262        C  0.06777915  0.63607629  0.42203181     0.05000
C263        C  0.43144380  0.56787521  0.42203031     0.05000
C264        C  0.36315993  0.93155404  0.42203306     0.05000
C265        C  0.43147364  0.56792562  0.07796493     0.05000
C266        C  0.06780729  0.63608298  0.07798484     0.05000
Fe267      Fe  0.39932545  0.69966069  0.25001822     1.65800
Fe268      Fe  0.30013459  0.69959027  0.25001455     1.73200
Fe269      Fe  0.30006769  0.60043184  0.25000802     1.54400
O270        O  0.33946794  0.59593840  0.19347237    -0.74200
O271        O  0.25652364  0.66046937  0.30693012    -0.72500
O272        O  0.40378056  0.66053768  0.19308914    -0.76700
O273        O  0.40382019  0.66024885  0.30654932    -0.71600
O274        O  0.25645759  0.59593016  0.19308601    -0.73300
O275        O  0.33954781  0.74351877  0.30653468    -0.76100
C276        C  0.37842127  0.62118827  0.32337115     1.04700
C277        C  0.37853168  0.62131387  0.17663481     1.12100
O278        O  0.33317964  0.66656044  0.25001361    -1.05100
O279        O  0.33926239  0.74318888  0.19310615    -0.67500
O280        O  0.40386826  0.74359481  0.19347857    -0.71000
O281        O  0.33919095  0.59596825  0.30691175    -0.71700
C282        C  0.37848178  0.75722858  0.17664397     1.03600
O283        O  0.40382048  0.74325915  0.30695758    -0.69600
O284        O  0.25619729  0.66018690  0.19348743    -0.74800
C285        C  0.24249838  0.62126226  0.32339827     1.06200
C286        C  0.24248937  0.62114694  0.17663596     1.12100
O287        O  0.25614519  0.59589197  0.30655983    -0.70500
C288        C  0.37859155  0.75722392  0.32339744     1.10400
C289        C  0.39575593  0.60403001  0.13849928    -0.05800
C290        C  0.41143964  0.58816401  0.10977274    -0.07400
C291        C  0.01977395  0.60952592  0.08807938    -0.05800
C292        C  0.47950102  0.58941293  0.08807046    -0.07400
C293        C  0.41138041  0.58807825  0.39021488    -0.05800
C294        C  0.39565931  0.60390910  0.36149353    -0.07400
C295        C  0.42568639  0.57370486  0.02320820    -0.05800
C296        C  0.42567049  0.57368216  0.47678415    -0.07400
C297        C  0.40979500  0.51984731  0.41190244    -0.05800
C298        C  0.38963947  0.97958095  0.41190724    -0.07400
C299        C  0.07358292  0.64763014  0.47679608    -0.05800
C300        C  0.07359958  0.64763241  0.02322040    -0.07200
C301        C  0.01974594  0.60950205  0.41193718    -0.05800
C302        C  0.47947254  0.58937740  0.41192216    -0.07400
C303        C  0.38965106  0.97963448  0.08810087    -0.05800
C304        C  0.40981056  0.51990070  0.08811079    -0.07400
C305        C  0.35161094  0.92578478  0.02322607    -0.05800
C306        C  0.35161127  0.92576307  0.47680084    -0.07400
C307        C  0.41136753  0.82332077  0.10977972    -0.05800
C308        C  0.39570663  0.79175016  0.13850313    -0.07400
C309        C  0.40975851  0.88997832  0.08819445    -0.05800
C310        C  0.38959148  0.91005119  0.08819421    -0.07400
C311        C  0.01971428  0.91030302  0.08810157    -0.05800
C312        C  0.47944113  0.89019010  0.08810560    -0.07400
C313        C  0.07355240  0.92602688  0.47681949    -0.05800
C314        C  0.07353261  0.92600719  0.02324346    -0.07400
C315        C  0.20797529  0.60401791  0.36154700    -0.05800
C316        C  0.17639639  0.58828089  0.39027037    -0.07400
C317        C  0.10962433  0.58968990  0.41184792    -0.05800
C318        C  0.08944748  0.60975262  0.41183214    -0.07400
C319        C  0.08942853  0.97985243  0.41192894    -0.05800
C320        C  0.10958503  0.52011863  0.41192214    -0.07400
C321        C  0.39580221  0.79174011  0.36154696    -0.05800
C322        C  0.41143358  0.82330825  0.39027603    -0.07400
C323        C  0.42564102  0.85207680  0.47681552    -0.05800
C324        C  0.42562184  0.85208036  0.02323976    -0.07400
C325        C  0.47948189  0.89019371  0.41195790    -0.05800
C326        C  0.01975527  0.91031872  0.41194813    -0.07400
C327        C  0.38960663  0.91001296  0.41185168    -0.05800
C328        C  0.40978448  0.88995139  0.41184531    -0.07400
C329        C  0.17638285  0.58821800  0.10977204    -0.05800
C330        C  0.20796266  0.60391534  0.13849270    -0.07400
C331        C  0.08940117  0.97981903  0.08813608    -0.05800
C332        C  0.10955976  0.52008523  0.08811474    -0.07400
C333        C  0.14760647  0.57392527  0.02323378    -0.05800
C334        C  0.14761191  0.57394478  0.47680858    -0.07400
C335        C  0.10962770  0.58967256  0.08819499    -0.05800
C336        C  0.08945995  0.60974469  0.08818647    -0.07400
C337        C  0.10346612  0.89569855  0.13853648    -0.05800
C338        C  0.08778020  0.91156243  0.10981200    -0.07400
C339        C  0.32283137  0.91149772  0.10976493    -0.05800
C340        C  0.29125201  0.89579467  0.13848694    -0.07400
C341        C  0.08785383  0.91162588  0.39025582    -0.05800
C342        C  0.10357947  0.89580011  0.36153225    -0.07400
C343        C  0.29125228  0.89567433  0.36154037    -0.05800
C344        C  0.32283202  0.91141220  0.39026178    -0.07400
C345        C  0.10349764  0.70796918  0.13848705    -0.05800
C346        C  0.08784026  0.67639961  0.10975994    -0.07400
C347        C  0.08778919  0.67639070  0.39025577    -0.05800
C348        C  0.10341471  0.70795977  0.36153040    -0.07400
Fe349      Fe  0.19907956  0.80011436  0.75000346     1.65800
Fe350      Fe  0.09989450  0.80005498  0.75002962     1.73200
Fe351      Fe  0.19915847  0.89927850  0.75002384     1.54400
O352        O  0.24308351  0.90380950  0.80656528    -0.74200
O353        O  0.09544072  0.83918587  0.69311338    -0.72500
O354        O  0.24269552  0.83922742  0.80692062    -0.76700
O355        O  0.24301706  0.83951945  0.69347732    -0.71600
O356        O  0.16004298  0.90374279  0.80693931    -0.73300
O357        O  0.09534246  0.75612304  0.69347802    -0.76100
C358        C  0.25672672  0.87856096  0.67663293     1.04700
C359        C  0.25672660  0.87843482  0.82339474     1.12100
O360        O  0.16604039  0.83314979  0.75001901    -1.05100
O361        O  0.09539693  0.75644897  0.80695775    -0.67500
O362        O  0.15966656  0.75618371  0.80651961    -0.71000
O363        O  0.24276176  0.90377869  0.69309242    -0.71700
C364        C  0.12062430  0.74247967  0.82338725     1.03600
O365        O  0.15994521  0.75652270  0.69309194    -0.69600
O366        O  0.09541032  0.83946533  0.80657287    -0.74800
C367        C  0.12069093  0.87841024  0.67666401     1.06200
C368        C  0.12081356  0.87852353  0.82340086     1.12100
O369        O  0.15975676  0.90378165  0.69349925    -0.70500
C370        C  0.12072571  0.74248769  0.67663398     1.10400
C371        C  0.13605586  0.56811300  0.57800105     0.05000
C372        C  0.43144801  0.86362501  0.92205076     0.05000
C373        C  0.13606724  0.56814697  0.92203978     0.05000
C374        C  0.06778300  0.93182685  0.92206372     0.05000
C375        C  0.06774269  0.93179276  0.57799855     0.05000
C376        C  0.43140859  0.86363533  0.57800371     0.05000
C377        C  0.36315925  0.93160464  0.57799400     0.05000
C378        C  0.06777910  0.63607623  0.92203190     0.05000
C379        C  0.43144375  0.56787525  0.92203040     0.05000
C380        C  0.36315992  0.93155401  0.92203295     0.05000
C381        C  0.43147362  0.56792557  0.57796483     0.05000
C382        C  0.06780731  0.63608295  0.57798485     0.05000
Fe383      Fe  0.39932536  0.69966056  0.75001835     1.65800
Fe384      Fe  0.30013464  0.69959029  0.75001474     1.73200
Fe385      Fe  0.30006765  0.60043177  0.75000809     1.54400
O386        O  0.33946794  0.59593840  0.69347241    -0.74200
O387        O  0.25652377  0.66046944  0.80693023    -0.72500
O388        O  0.40378053  0.66053762  0.69308925    -0.76700
O389        O  0.40382012  0.66024878  0.80654940    -0.71600
O390        O  0.25645769  0.59593030  0.69308594    -0.73300
O391        O  0.33954789  0.74351882  0.80653481    -0.76100
C392        C  0.37842104  0.62118806  0.82337126     1.04700
C393        C  0.37853174  0.62131393  0.67663475     1.12100
O394        O  0.33317959  0.66656034  0.75001376    -1.05100
O395        O  0.33926247  0.74318892  0.69310640    -0.67500
O396        O  0.40386823  0.74359475  0.69347873    -0.71000
O397        O  0.33919093  0.59596812  0.80691184    -0.71700
C398        C  0.37848183  0.75722856  0.67664416     1.03600
O399        O  0.40382047  0.74325905  0.80695776    -0.69600
O400        O  0.25619730  0.66018699  0.69348759    -0.74800
C401        C  0.24249849  0.62126236  0.82339815     1.06200
C402        C  0.24248952  0.62114726  0.67663594     1.12100
O403        O  0.25614508  0.59589191  0.80655977    -0.70500
C404        C  0.37859166  0.75722398  0.82339755     1.10400
C405        C  0.39575596  0.60403014  0.63849920    -0.05800
C406        C  0.41143967  0.58816394  0.60977274    -0.07400
C407        C  0.01977393  0.60952596  0.58807935    -0.05800
C408        C  0.47950099  0.58941296  0.58807049    -0.07400
C409        C  0.41138037  0.58807824  0.89021485    -0.05800
C410        C  0.39565918  0.60390903  0.86149354    -0.07400
C411        C  0.42568637  0.57370481  0.52320807    -0.05800
C412        C  0.42567046  0.57368213  0.97678425    -0.07400
C413        C  0.40979493  0.51984736  0.91190246    -0.05800
C414        C  0.38963944  0.97958092  0.91190726    -0.07400
C415        C  0.07358298  0.64763028  0.97679608    -0.05800
C416        C  0.07359976  0.64763243  0.52322029    -0.07200
C417        C  0.01974590  0.60950199  0.91193721    -0.05800
C418        C  0.47947253  0.58937756  0.91192200    -0.07400
C419        C  0.38965105  0.97963448  0.58810093    -0.05800
C420        C  0.40981070  0.51990077  0.58811095    -0.07400
C421        C  0.35161094  0.92578471  0.52322612    -0.05800
C422        C  0.35161120  0.92576307  0.97680079    -0.07400
C423        C  0.41136767  0.82332077  0.60977974    -0.05800
C424        C  0.39570678  0.79175023  0.63850315    -0.07400
C425        C  0.40975846  0.88997827  0.58819453    -0.05800
C426        C  0.38959146  0.91005118  0.58819408    -0.07400
C427        C  0.01971432  0.91030310  0.58810148    -0.05800
C428        C  0.47944120  0.89019010  0.58810556    -0.07400
C429        C  0.07355242  0.92602675  0.97681954    -0.05800
C430        C  0.07353263  0.92600720  0.52324344    -0.07400
C431        C  0.20797527  0.60401794  0.86154712    -0.05800
C432        C  0.17639648  0.58828089  0.89027020    -0.07400
C433        C  0.10962430  0.58968997  0.91184808    -0.05800
C434        C  0.08944743  0.60975267  0.91183217    -0.07400
C435        C  0.08942848  0.97985245  0.91192888    -0.05800
C436        C  0.10958483  0.52011858  0.91192228    -0.07400
C437        C  0.39580233  0.79174018  0.86154699    -0.05800
C438        C  0.41143365  0.82330832  0.89027614    -0.07400
C439        C  0.42564100  0.85207681  0.97681555    -0.05800
C440        C  0.42562182  0.85208040  0.52323977    -0.07400
C441        C  0.47948186  0.89019377  0.91195800    -0.05800
C442        C  0.01975518  0.91031868  0.91194803    -0.07400
C443        C  0.38960662  0.91001279  0.91185178    -0.05800
C444        C  0.40978457  0.88995131  0.91184520    -0.07400
C445        C  0.17638293  0.58821806  0.60977206    -0.05800
C446        C  0.20796275  0.60391557  0.63849262    -0.07400
C447        C  0.08940125  0.97981914  0.58813598    -0.05800
C448        C  0.10955989  0.52008532  0.58811471    -0.07400
C449        C  0.14760644  0.57392525  0.52323382    -0.05800
C450        C  0.14761195  0.57394493  0.97680848    -0.07400
C451        C  0.10962769  0.58967256  0.58819509    -0.05800
C452        C  0.08945993  0.60974470  0.58818641    -0.07400
C453        C  0.10346605  0.89569846  0.63853642    -0.05800
C454        C  0.08778016  0.91156237  0.60981199    -0.07400
C455        C  0.32283138  0.91149770  0.60976488    -0.05800
C456        C  0.29125211  0.89579476  0.63848688    -0.07400
C457        C  0.08785370  0.91162588  0.89025586    -0.05800
C458        C  0.10357952  0.89580011  0.86153225    -0.07400
C459        C  0.29125223  0.89567438  0.86154039    -0.05800
C460        C  0.32283198  0.91141220  0.89026182    -0.07400
C461        C  0.10349776  0.70796937  0.63848701    -0.05800
C462        C  0.08784033  0.67639962  0.60975993    -0.07400
C463        C  0.08778921  0.67639071  0.89025577    -0.05800
C464        C  0.10341474  0.70795967  0.86153030    -0.07400
Fe465      Fe  0.69907960  0.30011427  0.25000344     1.65800
Fe466      Fe  0.59989455  0.30005499  0.25002951     1.73200
Fe467      Fe  0.69915852  0.39927841  0.25002383     1.54400
O468        O  0.74308346  0.40380933  0.30656529    -0.74200
O469        O  0.59544070  0.33918581  0.19311329    -0.72500
O470        O  0.74269566  0.33922734  0.30692073    -0.76700
O471        O  0.74301707  0.33951929  0.19347727    -0.71600
O472        O  0.66004304  0.40374263  0.30693933    -0.73300
O473        O  0.59534241  0.25612300  0.19347782    -0.76100
C474        C  0.75672681  0.37856081  0.17663287     1.04700
C475        C  0.75672659  0.37843456  0.32339488     1.12100
O476        O  0.66604049  0.33314977  0.25001897    -1.05100
O477        O  0.59539687  0.25644891  0.30695762    -0.67500
O478        O  0.65966653  0.25618375  0.30651967    -0.71000
O479        O  0.74276178  0.40377859  0.19309239    -0.71700
C480        C  0.62062428  0.24247972  0.32338731     1.03600
O481        O  0.65994511  0.25652253  0.19309196    -0.69600
O482        O  0.59541024  0.33946529  0.30657278    -0.74800
C483        C  0.62069083  0.37841017  0.17666401     1.06200
C484        C  0.62081355  0.37852344  0.32340080     1.12100
O485        O  0.65975674  0.40378157  0.19349933    -0.70500
C486        C  0.62072567  0.24248757  0.17663398     1.10400
C487        C  0.63605578  0.06811285  0.07800114     0.05000
C488        C  0.93144801  0.36362506  0.42205074     0.05000
C489        C  0.63606725  0.06814697  0.42203970     0.05000
C490        C  0.56778302  0.43182678  0.42206369     0.05000
C491        C  0.56774271  0.43179276  0.07799858     0.05000
C492        C  0.93140859  0.36363532  0.07800369     0.05000
C493        C  0.86315920  0.43160463  0.07799394     0.05000
C494        C  0.56777903  0.13607622  0.42203184     0.05000
C495        C  0.93144377  0.06787522  0.42203035     0.05000
C496        C  0.86315987  0.43155400  0.42203311     0.05000
C497        C  0.93147367  0.06792562  0.07796491     0.05000
C498        C  0.56780735  0.13608292  0.07798484     0.05000
Fe499      Fe  0.89932534  0.19966052  0.25001815     1.65800
Fe500      Fe  0.80013465  0.19959019  0.25001458     1.73200
Fe501      Fe  0.80006758  0.10043174  0.25000804     1.54400
O502        O  0.83946788  0.09593820  0.19347245    -0.74200
O503        O  0.75652362  0.16046934  0.30693006    -0.72500
O504        O  0.90378051  0.16053753  0.19308915    -0.76700
O505        O  0.90382004  0.16024867  0.30654928    -0.71600
O506        O  0.75645761  0.09593021  0.19308597    -0.73300
O507        O  0.83954784  0.24351875  0.30653472    -0.76100
C508        C  0.87842092  0.12118794  0.32337116     1.04700
C509        C  0.87853161  0.12131367  0.17663474     1.12100
O510        O  0.83317962  0.16656032  0.25001360    -1.05100
O511        O  0.83926242  0.24318888  0.19310623    -0.67500
O512        O  0.90386819  0.24359469  0.19347854    -0.71000
O513        O  0.83919082  0.09596801  0.30691184    -0.71700
C514        C  0.87848171  0.25722851  0.17664400     1.03600
O515        O  0.90382034  0.24325896  0.30695757    -0.69600
O516        O  0.75619726  0.16018691  0.19348749    -0.74800
C517        C  0.74249842  0.12126223  0.32339816     1.06200
C518        C  0.74248929  0.12114697  0.17663591     1.12100
O519        O  0.75614513  0.09589194  0.30655983    -0.70500
C520        C  0.87859143  0.25722377  0.32339736     1.10400
C521        C  0.89575590  0.10403003  0.13849928    -0.05800
C522        C  0.91143970  0.08816393  0.10977277    -0.07400
C523        C  0.51977392  0.10952595  0.08807938    -0.05800
C524        C  0.97950102  0.08941301  0.08807045    -0.07400
C525        C  0.91138032  0.08807825  0.39021493    -0.05800
C526        C  0.89565923  0.10390894  0.36149363    -0.07400
C527        C  0.92568641  0.07370475  0.02320817    -0.05800
C528        C  0.92567045  0.07368219  0.47678415    -0.07400
C529        C  0.90979503  0.01984733  0.41190245    -0.05800
C530        C  0.88963944  0.47958090  0.41190729    -0.07400
C531        C  0.57358289  0.14763019  0.47679612    -0.05800
C532        C  0.57359970  0.14763236  0.02322039    -0.07200
C533        C  0.51974594  0.10950201  0.41193709    -0.05800
C534        C  0.97947248  0.08937739  0.41192211    -0.07400
C535        C  0.88965106  0.47963446  0.08810090    -0.05800
C536        C  0.90981065  0.01990069  0.08811078    -0.07400
C537        C  0.85161096  0.42578475  0.02322604    -0.05800
C538        C  0.85161125  0.42576302  0.47680089    -0.07400
C539        C  0.91136763  0.32332078  0.10977984    -0.05800
C540        C  0.89570669  0.29175016  0.13850322    -0.07400
C541        C  0.90975855  0.38997834  0.08819438    -0.05800
C542        C  0.88959150  0.41005120  0.08819406    -0.07400
C543        C  0.51971435  0.41030309  0.08810151    -0.05800
C544        C  0.97944128  0.39019011  0.08810551    -0.07400
C545        C  0.57355252  0.42602687  0.47681947    -0.05800
C546        C  0.57353271  0.42600728  0.02324345    -0.07400
C547        C  0.70797517  0.10401785  0.36154697    -0.05800
C548        C  0.67639650  0.08828100  0.39027032    -0.07400
C549        C  0.60962429  0.08968988  0.41184795    -0.05800
C550        C  0.58944751  0.10975262  0.41183221    -0.07400
C551        C  0.58942855  0.47985253  0.41192890    -0.05800
C552        C  0.60958493  0.02011862  0.41192220    -0.07400
C553        C  0.89580231  0.29174020  0.36154698    -0.05800
C554        C  0.91143355  0.32330817  0.39027604    -0.07400
C555        C  0.92564112  0.35207682  0.47681552    -0.05800
C556        C  0.92562186  0.35208046  0.02323977    -0.07400
C557        C  0.97948183  0.39019372  0.41195793    -0.05800
C558        C  0.51975522  0.41031869  0.41194816    -0.07400
C559        C  0.88960660  0.41001285  0.41185175    -0.05800
C560        C  0.90978448  0.38995130  0.41184527    -0.07400
C561        C  0.67638275  0.08821790  0.10977206    -0.05800
C562        C  0.70796274  0.10391535  0.13849267    -0.07400
C563        C  0.58940116  0.47981911  0.08813594    -0.05800
C564        C  0.60955974  0.02008515  0.08811472    -0.07400
C565        C  0.64760645  0.07392514  0.02323383    -0.05800
C566        C  0.64761195  0.07394482  0.47680856    -0.07400
C567        C  0.60962764  0.08967251  0.08819489    -0.05800
C568        C  0.58945994  0.10974468  0.08818638    -0.07400
C569        C  0.60346613  0.39569854  0.13853649    -0.05800
C570        C  0.58778036  0.41156261  0.10981201    -0.07400
C571        C  0.82283145  0.41149776  0.10976491    -0.05800
C572        C  0.79125198  0.39579453  0.13848701    -0.07400
C573        C  0.58785379  0.41162587  0.39025582    -0.05800
C574        C  0.60357962  0.39580012  0.36153226    -0.07400
C575        C  0.79125234  0.39567442  0.36154034    -0.05800
C576        C  0.82283208  0.41141218  0.39026177    -0.07400
C577        C  0.60349774  0.20796915  0.13848699    -0.05800
C578        C  0.58784037  0.17639955  0.10975995    -0.07400
C579        C  0.58778915  0.17639073  0.39025583    -0.05800
C580        C  0.60341475  0.20795972  0.36153044    -0.07400
Fe581      Fe  0.69907958  0.30011430  0.75000344     1.65800
Fe582      Fe  0.59989468  0.30005511  0.75002962     1.73200
Fe583      Fe  0.69915858  0.39927850  0.75002382     1.54400
O584        O  0.74308353  0.40380943  0.80656527    -0.74200
O585        O  0.59544077  0.33918596  0.69311344    -0.72500
O586        O  0.74269556  0.33922733  0.80692061    -0.76700
O587        O  0.74301708  0.33951933  0.69347727    -0.71600
O588        O  0.66004306  0.40374282  0.80693928    -0.73300
O589        O  0.59534251  0.25612311  0.69347794    -0.76100
C590        C  0.75672681  0.37856075  0.67663296     1.04700
C591        C  0.75672672  0.37843465  0.82339480     1.12100
O592        O  0.66604056  0.33314987  0.75001900    -1.05100
O593        O  0.59539694  0.25644899  0.80695779    -0.67500
O594        O  0.65966653  0.25618366  0.80651957    -0.71000
O595        O  0.74276180  0.40377860  0.69309248    -0.71700
C596        C  0.62062427  0.24247963  0.82338730     1.03600
O597        O  0.65994516  0.25652257  0.69309197    -0.69600
O598        O  0.59541037  0.33946542  0.80657289    -0.74800
C599        C  0.62069096  0.37841029  0.67666403     1.06200
C600        C  0.62081365  0.37852361  0.82340088     1.12100
O601        O  0.65975685  0.40378165  0.69349919    -0.70500
C602        C  0.62072569  0.24248764  0.67663393     1.10400
C603        C  0.63605586  0.06811294  0.57800101     0.05000
C604        C  0.93144807  0.36362504  0.92205077     0.05000
C605        C  0.63606726  0.06814697  0.92203984     0.05000
C606        C  0.56778303  0.43182685  0.92206374     0.05000
C607        C  0.56774277  0.43179283  0.57799855     0.05000
C608        C  0.93140865  0.36363540  0.57800369     0.05000
C609        C  0.86315929  0.43160470  0.57799402     0.05000
C610        C  0.56777903  0.13607625  0.92203189     0.05000
C611        C  0.93144377  0.06787529  0.92203035     0.05000
C612        C  0.86315989  0.43155407  0.92203292     0.05000
C613        C  0.93147363  0.06792555  0.57796486     0.05000
C614        C  0.56780730  0.13608290  0.57798490     0.05000
Fe615      Fe  0.89932535  0.19966058  0.75001841     1.65800
Fe616      Fe  0.80013470  0.19959034  0.75001466     1.73200
Fe617      Fe  0.80006763  0.10043186  0.75000804     1.54400
O618        O  0.83946789  0.09593845  0.69347238    -0.74200
O619        O  0.75652376  0.16046952  0.80693020    -0.72500
O620        O  0.90378054  0.16053762  0.69308929    -0.76700
O621        O  0.90382012  0.16024878  0.80654951    -0.71600
O622        O  0.75645764  0.09593035  0.69308596    -0.73300
O623        O  0.83954792  0.24351889  0.80653474    -0.76100
C624        C  0.87842103  0.12118809  0.82337128     1.04700
C625        C  0.87853160  0.12131392  0.67663478     1.12100
O626        O  0.83317961  0.16656040  0.75001375    -1.05100
O627        O  0.83926251  0.24318898  0.69310633    -0.67500
O628        O  0.90386824  0.24359481  0.69347877    -0.71000
O629        O  0.83919086  0.09596820  0.80691182    -0.71700
C630        C  0.87848190  0.25722856  0.67664413     1.03600
O631        O  0.90382046  0.24325910  0.80695774    -0.69600
O632        O  0.75619720  0.16018701  0.69348764    -0.74800
C633        C  0.74249852  0.12126241  0.82339816     1.06200
C634        C  0.74248937  0.12114725  0.67663597     1.12100
O635        O  0.75614506  0.09589201  0.80655975    -0.70500
C636        C  0.87859159  0.25722402  0.82339750     1.10400
C637        C  0.89575588  0.10403006  0.63849928    -0.05800
C638        C  0.91143970  0.08816402  0.60977288    -0.07400
C639        C  0.51977396  0.10952588  0.58807947    -0.05800
C640        C  0.97950098  0.08941292  0.58807052    -0.07400
C641        C  0.91138040  0.08807833  0.89021491    -0.05800
C642        C  0.89565907  0.10390897  0.86149361    -0.07400
C643        C  0.92568643  0.07370479  0.52320811    -0.05800
C644        C  0.92567038  0.07368216  0.97678422    -0.07400
C645        C  0.90979491  0.01984728  0.91190240    -0.05800
C646        C  0.88963952  0.47958102  0.91190732    -0.07400
C647        C  0.57358291  0.14763025  0.97679607    -0.05800
C648        C  0.57359967  0.14763229  0.52322034    -0.07200
C649        C  0.51974587  0.10950193  0.91193720    -0.05800
C650        C  0.97947242  0.08937748  0.91192198    -0.07400
C651        C  0.88965121  0.47963455  0.58810089    -0.05800
C652        C  0.90981071  0.01990074  0.58811095    -0.07400
C653        C  0.85161101  0.42578482  0.52322614    -0.05800
C654        C  0.85161123  0.42576313  0.97680081    -0.07400
C655        C  0.91136769  0.32332081  0.60977979    -0.05800
C656        C  0.89570678  0.29175026  0.63850312    -0.07400
C657        C  0.90975855  0.38997836  0.58819452    -0.05800
C658        C  0.88959150  0.41005121  0.58819401    -0.07400
C659        C  0.51971437  0.41030308  0.58810151    -0.05800
C660        C  0.97944128  0.39019011  0.58810554    -0.07400
C661        C  0.57355252  0.42602683  0.97681954    -0.05800
C662        C  0.57353266  0.42600723  0.52324342    -0.07400
C663        C  0.70797525  0.10401796  0.86154717    -0.05800
C664        C  0.67639651  0.08828087  0.89027026    -0.07400
C665        C  0.60962425  0.08968986  0.91184812    -0.05800
C666        C  0.58944748  0.10975262  0.91183219    -0.07400
C667        C  0.58942850  0.47985244  0.91192888    -0.05800
C668        C  0.60958497  0.02011866  0.91192225    -0.07400
C669        C  0.89580232  0.29174023  0.86154697    -0.05800
C670        C  0.91143362  0.32330835  0.89027611    -0.07400
C671        C  0.92564105  0.35207677  0.97681555    -0.05800
C672        C  0.92562185  0.35208043  0.52323981    -0.07400
C673        C  0.97948187  0.39019371  0.91195810    -0.05800
C674        C  0.51975525  0.41031873  0.91194810    -0.07400
C675        C  0.88960663  0.41001285  0.91185181    -0.05800
C676        C  0.90978456  0.38995141  0.91184522    -0.07400
C677        C  0.67638288  0.08821801  0.60977204    -0.05800
C678        C  0.70796285  0.10391562  0.63849264    -0.07400
C679        C  0.58940129  0.47981919  0.58813605    -0.05800
C680        C  0.60955977  0.02008525  0.58811460    -0.07400
C681        C  0.64760650  0.07392525  0.52323381    -0.05800
C682        C  0.64761190  0.07394472  0.97680857    -0.07400
C683        C  0.60962771  0.08967255  0.58819500    -0.05800
C684        C  0.58945996  0.10974467  0.58818636    -0.07400
C685        C  0.60346616  0.39569856  0.63853638    -0.05800
C686        C  0.58778027  0.41156246  0.60981193    -0.07400
C687        C  0.82283145  0.41149768  0.60976492    -0.05800
C688        C  0.79125213  0.39579462  0.63848695    -0.07400
C689        C  0.58785386  0.41162603  0.89025587    -0.05800
C690        C  0.60357971  0.39580027  0.86153230    -0.07400
C691        C  0.79125217  0.39567425  0.86154036    -0.05800
C692        C  0.82283210  0.41141228  0.89026182    -0.07400
C693        C  0.60349769  0.20796933  0.63848697    -0.05800
C694        C  0.58784022  0.17639954  0.60975994    -0.07400
C695        C  0.58778916  0.17639067  0.89025578    -0.05800
C696        C  0.60341479  0.20795967  0.86153035    -0.07400
Fe697      Fe  0.69907966  0.80011433  0.25000344     1.65800
Fe698      Fe  0.59989458  0.80005502  0.25002955     1.73200
Fe699      Fe  0.69915853  0.89927846  0.25002387     1.54400
O700        O  0.74308347  0.90380933  0.30656536    -0.74200
O701        O  0.59544077  0.83918582  0.19311322    -0.72500
O702        O  0.74269576  0.83922738  0.30692070    -0.76700
O703        O  0.74301718  0.83951936  0.19347726    -0.71600
O704        O  0.66004306  0.90374270  0.30693942    -0.73300
O705        O  0.59534252  0.75612309  0.19347792    -0.76100
C706        C  0.75672672  0.87856086  0.17663287     1.04700
C707        C  0.75672659  0.87843456  0.32339487     1.12100
O708        O  0.66604049  0.83314982  0.25001895    -1.05100
O709        O  0.59539700  0.75644905  0.30695770    -0.67500
O710        O  0.65966660  0.75618369  0.30651970    -0.71000
O711        O  0.74276172  0.90377855  0.19309239    -0.71700
C712        C  0.62062431  0.74247970  0.32338735     1.03600
O713        O  0.65994518  0.75652251  0.19309197    -0.69600
O714        O  0.59541030  0.83946536  0.30657277    -0.74800
C715        C  0.62069096  0.87841027  0.17666400     1.06200
C716        C  0.62081359  0.87852346  0.32340079     1.12100
O717        O  0.65975677  0.90378166  0.19349936    -0.70500
C718        C  0.62072571  0.74248759  0.17663404     1.10400
C719        C  0.63605581  0.56811292  0.07800110     0.05000
C720        C  0.93144803  0.86362499  0.42205072     0.05000
C721        C  0.63606729  0.56814700  0.42203968     0.05000
C722        C  0.56778304  0.93182683  0.42206371     0.05000
C723        C  0.56774262  0.93179265  0.07799862     0.05000
C724        C  0.93140851  0.86363528  0.07800368     0.05000
C725        C  0.86315923  0.93160465  0.07799393     0.05000
C726        C  0.56777912  0.63607627  0.42203181     0.05000
C727        C  0.93144382  0.56787521  0.42203031     0.05000
C728        C  0.86315994  0.93155404  0.42203306     0.05000
C729        C  0.93147364  0.56792562  0.07796492     0.05000
C730        C  0.56780729  0.63608297  0.07798484     0.05000
Fe731      Fe  0.89932545  0.69966068  0.25001820     1.65800
Fe732      Fe  0.80013460  0.69959027  0.25001456     1.73200
Fe733      Fe  0.80006771  0.60043184  0.25000805     1.54400
O734        O  0.83946797  0.59593840  0.19347242    -0.74200
O735        O  0.75652366  0.66046939  0.30693013    -0.72500
O736        O  0.90378058  0.66053768  0.19308912    -0.76700
O737        O  0.90382018  0.66024882  0.30654929    -0.71600
O738        O  0.75645762  0.59593016  0.19308599    -0.73300
O739        O  0.83954783  0.74351877  0.30653468    -0.76100
C740        C  0.87842119  0.62118823  0.32337118     1.04700
C741        C  0.87853170  0.62131387  0.17663483     1.12100
O742        O  0.83317965  0.66656045  0.25001360    -1.05100
O743        O  0.83926241  0.74318887  0.19310615    -0.67500
O744        O  0.90386828  0.74359482  0.19347858    -0.71000
O745        O  0.83919095  0.59596823  0.30691181    -0.71700
C746        C  0.87848181  0.75722859  0.17664397     1.03600
O747        O  0.90382049  0.74325914  0.30695758    -0.69600
O748        O  0.75619730  0.66018690  0.19348743    -0.74800
C749        C  0.74249835  0.62126225  0.32339829     1.06200
C750        C  0.74248940  0.62114694  0.17663595     1.12100
O751        O  0.75614517  0.59589196  0.30655982    -0.70500
C752        C  0.87859157  0.75722392  0.32339744     1.10400
C753        C  0.89575594  0.60403000  0.13849928    -0.05800
C754        C  0.91143964  0.58816401  0.10977274    -0.07400
C755        C  0.51977395  0.60952592  0.08807937    -0.05800
C756        C  0.97950102  0.58941293  0.08807047    -0.07400
C757        C  0.91138037  0.58807823  0.39021485    -0.05800
C758        C  0.89565927  0.60390908  0.36149355    -0.07400
C759        C  0.92568641  0.57370486  0.02320820    -0.05800
C760        C  0.92567049  0.57368216  0.47678414    -0.07400
C761        C  0.90979500  0.51984731  0.41190242    -0.05800
C762        C  0.88963948  0.97958095  0.41190724    -0.07400
C763        C  0.57358297  0.64763015  0.47679608    -0.05800
C764        C  0.57359958  0.64763241  0.02322040    -0.07200
C765        C  0.51974591  0.60950207  0.41193713    -0.05800
C766        C  0.97947257  0.58937743  0.41192219    -0.07400
C767        C  0.88965107  0.97963448  0.08810087    -0.05800
C768        C  0.90981057  0.51990069  0.08811079    -0.07400
C769        C  0.85161095  0.92578478  0.02322607    -0.05800
C770        C  0.85161128  0.92576307  0.47680083    -0.07400
C771        C  0.91136756  0.82332078  0.10977972    -0.05800
C772        C  0.89570665  0.79175017  0.13850313    -0.07400
C773        C  0.90975850  0.88997831  0.08819444    -0.05800
C774        C  0.88959145  0.91005118  0.08819421    -0.07400
C775        C  0.51971424  0.91030297  0.08810157    -0.05800
C776        C  0.97944121  0.89019010  0.08810559    -0.07400
C777        C  0.57355246  0.92602687  0.47681948    -0.05800
C778        C  0.57353262  0.92600720  0.02324346    -0.07400
C779        C  0.70797528  0.60401792  0.36154699    -0.05800
C780        C  0.67639637  0.58828089  0.39027036    -0.07400
C781        C  0.60962430  0.58968992  0.41184796    -0.05800
C782        C  0.58944744  0.60975262  0.41183219    -0.07400
C783        C  0.58942850  0.97985243  0.41192893    -0.05800
C784        C  0.60958501  0.52011863  0.41192213    -0.07400
C785        C  0.89580222  0.79174011  0.36154697    -0.05800
C786        C  0.91143360  0.82330825  0.39027604    -0.07400
C787        C  0.92564104  0.85207682  0.47681553    -0.05800
C788        C  0.92562185  0.85208037  0.02323976    -0.07400
C789        C  0.97948192  0.89019372  0.41195795    -0.05800
C790        C  0.51975524  0.91031873  0.41194806    -0.07400
C791        C  0.88960664  0.91001296  0.41185168    -0.05800
C792        C  0.90978449  0.88995138  0.41184531    -0.07400
C793        C  0.67638286  0.58821800  0.10977203    -0.05800
C794        C  0.70796267  0.60391535  0.13849269    -0.07400
C795        C  0.58940117  0.97981904  0.08813609    -0.05800
C796        C  0.60955977  0.52008523  0.08811474    -0.07400
C797        C  0.64760648  0.57392527  0.02323378    -0.05800
C798        C  0.64761190  0.57394478  0.47680857    -0.07400
C799        C  0.60962771  0.58967256  0.08819498    -0.05800
C800        C  0.58945996  0.60974468  0.08818647    -0.07400
C801        C  0.60346614  0.89569856  0.13853649    -0.05800
C802        C  0.58778023  0.91156244  0.10981201    -0.07400
C803        C  0.82283138  0.91149773  0.10976493    -0.05800
C804        C  0.79125202  0.89579467  0.13848695    -0.07400
C805        C  0.58785381  0.91162587  0.39025585    -0.05800
C806        C  0.60357948  0.89580011  0.36153230    -0.07400
C807        C  0.79125230  0.89567433  0.36154037    -0.05800
C808        C  0.82283204  0.91141220  0.39026178    -0.07400
C809        C  0.60349766  0.70796918  0.13848705    -0.05800
C810        C  0.58784027  0.67639961  0.10975994    -0.07400
C811        C  0.58778913  0.67639071  0.39025578    -0.05800
C812        C  0.60341464  0.70795977  0.36153039    -0.07400
Fe813      Fe  0.69907958  0.80011437  0.75000345     1.65800
Fe814      Fe  0.59989451  0.80005498  0.75002965     1.73200
Fe815      Fe  0.69915846  0.89927848  0.75002382     1.54400
O816        O  0.74308352  0.90380951  0.80656527    -0.74200
O817        O  0.59544072  0.83918586  0.69311344    -0.72500
O818        O  0.74269553  0.83922742  0.80692061    -0.76700
O819        O  0.74301708  0.83951945  0.69347732    -0.71600
O820        O  0.66004299  0.90374279  0.80693929    -0.73300
O821        O  0.59534247  0.75612307  0.69347800    -0.76100
C822        C  0.75672674  0.87856096  0.67663293     1.04700
C823        C  0.75672661  0.87843482  0.82339474     1.12100
O824        O  0.66604040  0.83314978  0.75001900    -1.05100
O825        O  0.59539696  0.75644896  0.80695774    -0.67500
O826        O  0.65966659  0.75618371  0.80651961    -0.71000
O827        O  0.74276177  0.90377868  0.69309242    -0.71700
C828        C  0.62062433  0.74247966  0.82338725     1.03600
O829        O  0.65994522  0.75652269  0.69309195    -0.69600
O830        O  0.59541033  0.83946532  0.80657290    -0.74800
C831        C  0.62069088  0.87841021  0.67666404     1.06200
C832        C  0.62081358  0.87852353  0.82340087     1.12100
O833        O  0.65975675  0.90378161  0.69349922    -0.70500
C834        C  0.62072572  0.74248770  0.67663398     1.10400
C835        C  0.63605586  0.56811299  0.57800105     0.05000
C836        C  0.93144801  0.86362499  0.92205076     0.05000
C837        C  0.63606719  0.56814697  0.92203979     0.05000
C838        C  0.56778300  0.93182684  0.92206371     0.05000
C839        C  0.56774266  0.93179276  0.57799854     0.05000
C840        C  0.93140857  0.86363527  0.57800372     0.05000
C841        C  0.86315928  0.93160466  0.57799400     0.05000
C842        C  0.56777905  0.63607622  0.92203190     0.05000
C843        C  0.93144378  0.56787526  0.92203040     0.05000
C844        C  0.86315993  0.93155400  0.92203295     0.05000
C845        C  0.93147362  0.56792558  0.57796485     0.05000
C846        C  0.56780729  0.63608294  0.57798485     0.05000
Fe847      Fe  0.89932529  0.69966055  0.75001832     1.65800
Fe848      Fe  0.80013459  0.69959030  0.75001471     1.73200
Fe849      Fe  0.80006762  0.60043180  0.75000814     1.54400
O850        O  0.83946792  0.59593838  0.69347245    -0.74200
O851        O  0.75652365  0.66046943  0.80693016    -0.72500
O852        O  0.90378051  0.66053761  0.69308919    -0.76700
O853        O  0.90382011  0.66024878  0.80654937    -0.71600
O854        O  0.75645769  0.59593034  0.69308594    -0.73300
O855        O  0.83954783  0.74351881  0.80653483    -0.76100
C856        C  0.87842105  0.62118805  0.82337125     1.04700
C857        C  0.87853167  0.62131391  0.67663473     1.12100
O858        O  0.83317953  0.66656035  0.75001378    -1.05100
O859        O  0.83926241  0.74318894  0.69310639    -0.67500
O860        O  0.90386818  0.74359476  0.69347876    -0.71000
O861        O  0.83919092  0.59596813  0.80691186    -0.71700
C862        C  0.87848180  0.75722860  0.67664415     1.03600
O863        O  0.90382040  0.74325903  0.80695775    -0.69600
O864        O  0.75619720  0.66018697  0.69348757    -0.74800
C865        C  0.74249840  0.62126238  0.82339813     1.06200
C866        C  0.74248949  0.62114726  0.67663592     1.12100
O867        O  0.75614510  0.59589198  0.80655983    -0.70500
C868        C  0.87859160  0.75722396  0.82339755     1.10400
C869        C  0.89575592  0.60403012  0.63849918    -0.05800
C870        C  0.91143968  0.58816397  0.60977278    -0.07400
C871        C  0.51977392  0.60952595  0.58807939    -0.05800
C872        C  0.97950099  0.58941297  0.58807049    -0.07400
C873        C  0.91138046  0.58807830  0.89021485    -0.05800
C874        C  0.89565921  0.60390905  0.86149352    -0.07400
C875        C  0.92568636  0.57370481  0.52320807    -0.05800
C876        C  0.92567052  0.57368216  0.97678424    -0.07400
C877        C  0.90979489  0.51984739  0.91190246    -0.05800
C878        C  0.88963944  0.97958092  0.91190726    -0.07400
C879        C  0.57358294  0.64763028  0.97679608    -0.05800
C880        C  0.57359969  0.64763242  0.52322030    -0.07200
C881        C  0.51974594  0.60950203  0.91193722    -0.05800
C882        C  0.97947255  0.58937747  0.91192199    -0.07400
C883        C  0.88965106  0.97963449  0.58810093    -0.05800
C884        C  0.90981070  0.51990078  0.58811096    -0.07400
C885        C  0.85161095  0.92578472  0.52322612    -0.05800
C886        C  0.85161122  0.92576307  0.97680079    -0.07400
C887        C  0.91136769  0.82332079  0.60977976    -0.05800
C888        C  0.89570677  0.79175025  0.63850318    -0.07400
C889        C  0.90975848  0.88997829  0.58819454    -0.05800
C890        C  0.88959149  0.91005121  0.58819409    -0.07400
C891        C  0.51971428  0.91030307  0.58810152    -0.05800
C892        C  0.97944123  0.89019014  0.58810557    -0.07400
C893        C  0.57355242  0.92602675  0.97681955    -0.05800
C894        C  0.57353254  0.92600719  0.52324343    -0.07400
C895        C  0.70797523  0.60401792  0.86154713    -0.05800
C896        C  0.67639641  0.58828087  0.89027025    -0.07400
C897        C  0.60962422  0.58968992  0.91184808    -0.05800
C898        C  0.58944744  0.60975264  0.91183216    -0.07400
C899        C  0.58942849  0.97985245  0.91192888    -0.05800
C900        C  0.60958482  0.52011860  0.91192229    -0.07400
C901        C  0.89580231  0.79174017  0.86154699    -0.05800
C902        C  0.91143365  0.82330831  0.89027613    -0.07400
C903        C  0.92564100  0.85207680  0.97681556    -0.05800
C904        C  0.92562184  0.85208042  0.52323978    -0.07400
C905        C  0.97948186  0.89019377  0.91195799    -0.05800
C906        C  0.51975517  0.91031867  0.91194804    -0.07400
C907        C  0.88960664  0.91001279  0.91185178    -0.05800
C908        C  0.90978457  0.88995130  0.91184520    -0.07400
C909        C  0.67638294  0.58821805  0.60977202    -0.05800
C910        C  0.70796275  0.60391553  0.63849257    -0.07400
C911        C  0.58940122  0.97981915  0.58813599    -0.05800
C912        C  0.60955990  0.52008532  0.58811470    -0.07400
C913        C  0.64760643  0.57392525  0.52323381    -0.05800
C914        C  0.64761192  0.57394494  0.97680848    -0.07400
C915        C  0.60962770  0.58967256  0.58819508    -0.05800
C916        C  0.58945994  0.60974470  0.58818637    -0.07400
C917        C  0.60346601  0.89569845  0.63853642    -0.05800
C918        C  0.58778015  0.91156238  0.60981194    -0.07400
C919        C  0.82283139  0.91149771  0.60976487    -0.05800
C920        C  0.79125212  0.89579476  0.63848689    -0.07400
C921        C  0.58785370  0.91162587  0.89025587    -0.05800
C922        C  0.60357953  0.89580011  0.86153226    -0.07400
C923        C  0.79125225  0.89567438  0.86154039    -0.05800
C924        C  0.82283200  0.91141220  0.89026182    -0.07400
C925        C  0.60349777  0.70796937  0.63848701    -0.05800
C926        C  0.58784033  0.67639961  0.60975993    -0.07400
C927        C  0.58778919  0.67639071  0.89025577    -0.05800
C928        C  0.60341475  0.70795967  0.86153030    -0.07400
loop_ 
_geom_bond_atom_site_label_1 
_geom_bond_atom_site_label_2 
_geom_bond_distance 
_geom_bond_site_symmetry_2 
_ccdc_geom_bond_type 
Fe1          O17   2.063       .  S
Fe1           O7   2.063       .  S
Fe1          O14   2.063       .  S
Fe1           O6   2.063       .  S
Fe1          O12   1.984       .  S
Fe2           O5   2.064       .  S
Fe2           O9   2.064       .  S
Fe2          O13   2.064       .  S
Fe2          O18   2.064       .  S
Fe2          O12   1.984       .  S
Fe3          O21   2.064       .  S
Fe3           O8   2.064       .  S
Fe3          O15   2.064       .  S
Fe3           O4   2.064       .  S
Fe3          O12   1.984       .  S
O4           C11   1.267       .  A
O5           C19   1.267       .  A
O6           C11   1.267       .  A
O7           C10   1.267       .  A
O8           C20   1.267       .  A
O9           C22   1.267       .  A
C10          O15   1.267       .  A
C10         C108   1.433       .  S
C11         C111   1.433       .  S
O13          C16   1.267       .  A
O14          C16   1.267       .  A
C16         C116   1.433       .  S
O17          C22   1.267       .  A
O18          C20   1.267       .  A
C19          O21   1.267       .  A
C19         C105   1.434       .  S
C20         C110   1.434       .  S
C22         C113   1.433       .  S
C23          C97   1.464       .  S
C23         C100   1.467       .  S
C23         C101   1.465       .  S
C23         C103   1.467       .  S
C24          C90   1.464       .  S
C24          C91   1.465       .  S
C24          C93   1.467       .  S
C24          C96   1.467       .  S
C25          C84   1.464       .  S
C25          C85   1.467       .  S
C25          C88   1.467       .  S
C25         C102   1.465       .  S
C26          C81   1.465       .  S
C26          C87   1.467       .  S
C26          C94   1.467       .  S
C26         C109   1.464       .  S
C27          C79   1.467       .  S
C27          C82   1.465       .  S
C27          C99   1.467       .  S
C27         C106   1.465       .  S
C28          C75   1.464       .  S
C28          C77   1.467       .  S
C28          C80   1.467       .  S
C28          C92   1.465       .  S
C29          C71   1.467       .  S
C29          C73   1.465       .  S
C29          C78   1.467       .  S
C29         C107   1.464       .  S
C30          C67   1.465       .  S
C30          C69   1.467       .  S
C30          C86   1.467       .  S
C30         C115   1.464       .  S
C31          C61   1.465       .  S
C31          C64   1.465       .  S
C31          C65   1.467       .  S
C31          C70   1.467       .  S
C32          C66   1.467       .  S
C32          C74   1.465       .  S
C32          C95   1.467       .  S
C32         C112   1.464       .  S
C33          C58   1.464       .  S
C33          C60   1.467       .  S
C33          C63   1.465       .  S
C33          C72   1.467       .  S
C34          C59   1.467       .  S
C34          C68   1.465       .  S
C34         C104   1.467       .  S
C34         C114   1.464       .  S
Fe35         O51   2.064       .  S
Fe35         O41   2.064       .  S
Fe35         O48   2.064       .  S
Fe35         O40   2.064       .  S
Fe35         O46   1.984       .  S
Fe36         O39   2.063       .  S
Fe36         O43   2.063       .  S
Fe36         O47   2.063       .  S
Fe36         O52   2.063       .  S
Fe36         O46   1.984       .  S
Fe37         O55   2.064       .  S
Fe37         O42   2.064       .  S
Fe37         O49   2.064       .  S
Fe37         O38   2.064       .  S
Fe37         O46   1.984       .  S
O38          C45   1.267       .  A
O39          C53   1.267       .  A
O40          C45   1.267       .  A
O41          C44   1.267       .  A
O42          C54   1.267       .  A
O43          C56   1.267       .  A
C44          O49   1.267       .  A
C44          C62   1.434       .  S
C45          C57   1.434       .  S
O47          C50   1.267       .  A
O48          C50   1.267       .  A
C50          C76   1.433       .  S
O51          C56   1.267       .  A
O52          C54   1.267       .  A
C53          O55   1.267       .  A
C53          C83   1.433       .  S
C54          C98   1.433       .  S
C56          C89   1.433       .  S
C57          C58   1.206       .  T
C59         C524   1.208   1_455  T
C60         C523   1.208       .  T
C61          C62   1.206       .  T
C63         C180   1.206   1_554  T
C64         C179   1.206       .  T
C65         C298   1.208   1_545  T
C66         C297   1.208       .  T
C67         C184   1.206       .  T
C68         C183   1.206   1_554  T
C69         C534   1.208   1_455  T
C70         C533   1.208       .  T
C71         C304   1.208       .  T
C72         C303   1.208   1_545  T
C73         C190   1.206   1_554  T
C74         C189   1.206       .  T
C75          C76   1.206       .  T
C77          C78   1.208       .  T
C79         C544   1.208   1_455  T
C80         C543   1.208       .  T
C81         C198   1.206       .  T
C82         C197   1.206   1_554  T
C83          C84   1.206       .  T
C85          C86   1.208       .  T
C87         C320   1.208       .  T
C88         C319   1.208   1_545  T
C89          C90   1.206       .  T
C91         C208   1.206       .  T
C92         C207   1.206   1_554  T
C93         C558   1.208       .  T
C94         C557   1.208   1_455  T
C95          C96   1.208       .  T
C97          C98   1.206       .  T
C99         C332   1.208       .  T
C100        C331   1.208   1_545  T
C101        C218   1.206   1_554  T
C102        C217   1.206       .  T
C103        C104   1.208       .  T
C105        C106   1.206       .  T
C107        C108   1.206       .  T
C109        C110   1.206       .  T
C111        C112   1.206       .  T
C113        C114   1.206       .  T
C115        C116   1.206       .  T
Fe117       O133   2.063       .  S
Fe117       O123   2.063       .  S
Fe117       O130   2.063       .  S
Fe117       O122   2.063       .  S
Fe117       O128   1.984       .  S
Fe118       O121   2.064       .  S
Fe118       O125   2.064       .  S
Fe118       O129   2.064       .  S
Fe118       O134   2.064       .  S
Fe118       O128   1.984       .  S
Fe119       O137   2.064       .  S
Fe119       O124   2.064       .  S
Fe119       O131   2.064       .  S
Fe119       O120   2.064       .  S
Fe119       O128   1.984       .  S
O120        C127   1.267       .  A
O121        C135   1.267       .  A
O122        C127   1.267       .  A
O123        C126   1.267       .  A
O124        C136   1.267       .  A
O125        C138   1.267       .  A
C126        O131   1.267       .  A
C126        C224   1.433       .  S
C127        C227   1.433       .  S
O129        C132   1.267       .  A
O130        C132   1.267       .  A
C132        C232   1.433       .  S
O133        C138   1.267       .  A
O134        C136   1.267       .  A
C135        O137   1.267       .  A
C135        C221   1.434       .  S
C136        C226   1.434       .  S
C138        C229   1.433       .  S
C139        C213   1.464       .  S
C139        C216   1.467       .  S
C139        C217   1.465       .  S
C139        C219   1.467       .  S
C140        C206   1.464       .  S
C140        C207   1.465       .  S
C140        C209   1.467       .  S
C140        C212   1.467       .  S
C141        C200   1.464       .  S
C141        C201   1.467       .  S
C141        C204   1.467       .  S
C141        C218   1.465       .  S
C142        C197   1.465       .  S
C142        C203   1.467       .  S
C142        C210   1.467       .  S
C142        C225   1.464       .  S
C143        C195   1.467       .  S
C143        C198   1.465       .  S
C143        C215   1.467       .  S
C143        C222   1.465       .  S
C144        C191   1.464       .  S
C144        C193   1.467       .  S
C144        C196   1.467       .  S
C144        C208   1.465       .  S
C145        C187   1.467       .  S
C145        C189   1.465       .  S
C145        C194   1.467       .  S
C145        C223   1.464       .  S
C146        C183   1.465       .  S
C146        C185   1.467       .  S
C146        C202   1.467       .  S
C146        C231   1.464       .  S
C147        C177   1.465       .  S
C147        C180   1.465       .  S
C147        C181   1.467       .  S
C147        C186   1.467       .  S
C148        C182   1.467       .  S
C148        C190   1.465       .  S
C148        C211   1.467       .  S
C148        C228   1.464       .  S
C149        C174   1.464       .  S
C149        C176   1.467       .  S
C149        C179   1.465       .  S
C149        C188   1.467       .  S
C150        C175   1.467       .  S
C150        C184   1.465       .  S
C150        C220   1.467       .  S
C150        C230   1.464       .  S
Fe151       O167   2.064       .  S
Fe151       O157   2.064       .  S
Fe151       O164   2.064       .  S
Fe151       O156   2.064       .  S
Fe151       O162   1.984       .  S
Fe152       O155   2.063       .  S
Fe152       O159   2.063       .  S
Fe152       O163   2.063       .  S
Fe152       O168   2.063       .  S
Fe152       O162   1.984       .  S
Fe153       O171   2.064       .  S
Fe153       O158   2.064       .  S
Fe153       O165   2.064       .  S
Fe153       O154   2.064       .  S
Fe153       O162   1.984       .  S
O154        C161   1.267       .  A
O155        C169   1.267       .  A
O156        C161   1.267       .  A
O157        C160   1.267       .  A
O158        C170   1.267       .  A
O159        C172   1.267       .  A
C160        O165   1.267       .  A
C160        C178   1.434       .  S
C161        C173   1.434       .  S
O163        C166   1.267       .  A
O164        C166   1.267       .  A
C166        C192   1.433       .  S
O167        C172   1.267       .  A
O168        C170   1.267       .  A
C169        O171   1.267       .  A
C169        C199   1.433       .  S
C170        C214   1.433       .  S
C172        C205   1.433       .  S
C173        C174   1.206       .  T
C175        C640   1.208   1_455  T
C176        C639   1.208       .  T
C177        C178   1.206       .  T
C181        C414   1.208   1_545  T
C182        C413   1.208       .  T
C185        C650   1.208   1_455  T
C186        C649   1.208       .  T
C187        C420   1.208       .  T
C188        C419   1.208   1_545  T
C191        C192   1.206       .  T
C193        C194   1.208       .  T
C195        C660   1.208   1_455  T
C196        C659   1.208       .  T
C199        C200   1.206       .  T
C201        C202   1.208       .  T
C203        C436   1.208       .  T
C204        C435   1.208   1_545  T
C205        C206   1.206       .  T
C209        C674   1.208       .  T
C210        C673   1.208   1_455  T
C211        C212   1.208       .  T
C213        C214   1.206       .  T
C215        C448   1.208       .  T
C216        C447   1.208   1_545  T
C219        C220   1.208       .  T
C221        C222   1.206       .  T
C223        C224   1.206       .  T
C225        C226   1.206       .  T
C227        C228   1.206       .  T
C229        C230   1.206       .  T
C231        C232   1.206       .  T
Fe233       O249   2.063       .  S
Fe233       O239   2.063       .  S
Fe233       O246   2.063       .  S
Fe233       O238   2.063       .  S
Fe233       O244   1.984       .  S
Fe234       O237   2.064       .  S
Fe234       O241   2.064       .  S
Fe234       O245   2.064       .  S
Fe234       O250   2.064       .  S
Fe234       O244   1.984       .  S
Fe235       O253   2.064       .  S
Fe235       O240   2.064       .  S
Fe235       O247   2.064       .  S
Fe235       O236   2.064       .  S
Fe235       O244   1.984       .  S
O236        C243   1.267       .  A
O237        C251   1.267       .  A
O238        C243   1.267       .  A
O239        C242   1.267       .  A
O240        C252   1.267       .  A
O241        C254   1.267       .  A
C242        O247   1.267       .  A
C242        C340   1.433       .  S
C243        C343   1.433       .  S
O245        C248   1.267       .  A
O246        C248   1.267       .  A
C248        C348   1.433       .  S
O249        C254   1.267       .  A
O250        C252   1.267       .  A
C251        O253   1.267       .  A
C251        C337   1.434       .  S
C252        C342   1.434       .  S
C254        C345   1.433       .  S
C255        C329   1.464       .  S
C255        C332   1.467       .  S
C255        C333   1.465       .  S
C255        C335   1.467       .  S
C256        C322   1.464       .  S
C256        C323   1.465       .  S
C256        C325   1.467       .  S
C256        C328   1.467       .  S
C257        C316   1.464       .  S
C257        C317   1.467       .  S
C257        C320   1.467       .  S
C257        C334   1.465       .  S
C258        C313   1.465       .  S
C258        C319   1.467       .  S
C258        C326   1.467       .  S
C258        C341   1.464       .  S
C259        C311   1.467       .  S
C259        C314   1.465       .  S
C259        C331   1.467       .  S
C259        C338   1.465       .  S
C260        C307   1.464       .  S
C260        C309   1.467       .  S
C260        C312   1.467       .  S
C260        C324   1.465       .  S
C261        C303   1.467       .  S
C261        C305   1.465       .  S
C261        C310   1.467       .  S
C261        C339   1.464       .  S
C262        C299   1.465       .  S
C262        C301   1.467       .  S
C262        C318   1.467       .  S
C262        C347   1.464       .  S
C263        C293   1.465       .  S
C263        C296   1.465       .  S
C263        C297   1.467       .  S
C263        C302   1.467       .  S
C264        C298   1.467       .  S
C264        C306   1.465       .  S
C264        C327   1.467       .  S
C264        C344   1.464       .  S
C265        C290   1.464       .  S
C265        C292   1.467       .  S
C265        C295   1.465       .  S
C265        C304   1.467       .  S
C266        C291   1.467       .  S
C266        C300   1.465       .  S
C266        C336   1.467       .  S
C266        C346   1.464       .  S
Fe267       O283   2.064       .  S
Fe267       O273   2.064       .  S
Fe267       O280   2.064       .  S
Fe267       O272   2.064       .  S
Fe267       O278   1.984       .  S
Fe268       O271   2.063       .  S
Fe268       O275   2.063       .  S
Fe268       O279   2.063       .  S
Fe268       O284   2.063       .  S
Fe268       O278   1.984       .  S
Fe269       O287   2.064       .  S
Fe269       O274   2.064       .  S
Fe269       O281   2.064       .  S
Fe269       O270   2.064       .  S
Fe269       O278   1.984       .  S
O270        C277   1.267       .  A
O271        C285   1.267       .  A
O272        C277   1.267       .  A
O273        C276   1.267       .  A
O274        C286   1.267       .  A
O275        C288   1.267       .  A
C276        O281   1.267       .  A
C276        C294   1.434       .  S
C277        C289   1.434       .  S
O279        C282   1.267       .  A
O280        C282   1.267       .  A
C282        C308   1.433       .  S
O283        C288   1.267       .  A
O284        C286   1.267       .  A
C285        O287   1.267       .  A
C285        C315   1.433       .  S
C286        C330   1.433       .  S
C288        C321   1.433       .  S
C289        C290   1.206       .  T
C291        C756   1.208   1_455  T
C292        C755   1.208       .  T
C293        C294   1.206       .  T
C295        C412   1.206   1_554  T
C296        C411   1.206       .  T
C299        C416   1.206       .  T
C300        C415   1.206   1_554  T
C301        C766   1.208   1_455  T
C302        C765   1.208       .  T
C305        C422   1.206   1_554  T
C306        C421   1.206       .  T
C307        C308   1.206       .  T
C309        C310   1.208       .  T
C311        C776   1.208   1_455  T
C312        C775   1.208       .  T
C313        C430   1.206       .  T
C314        C429   1.206   1_554  T
C315        C316   1.206       .  T
C317        C318   1.208       .  T
C321        C322   1.206       .  T
C323        C440   1.206       .  T
C324        C439   1.206   1_554  T
C325        C790   1.208       .  T
C326        C789   1.208   1_455  T
C327        C328   1.208       .  T
C329        C330   1.206       .  T
C333        C450   1.206   1_554  T
C334        C449   1.206       .  T
C335        C336   1.208       .  T
C337        C338   1.206       .  T
C339        C340   1.206       .  T
C341        C342   1.206       .  T
C343        C344   1.206       .  T
C345        C346   1.206       .  T
C347        C348   1.206       .  T
Fe349       O365   2.063       .  S
Fe349       O355   2.063       .  S
Fe349       O362   2.063       .  S
Fe349       O354   2.063       .  S
Fe349       O360   1.984       .  S
Fe350       O353   2.064       .  S
Fe350       O357   2.064       .  S
Fe350       O361   2.064       .  S
Fe350       O366   2.064       .  S
Fe350       O360   1.984       .  S
Fe351       O369   2.064       .  S
Fe351       O356   2.064       .  S
Fe351       O363   2.064       .  S
Fe351       O352   2.064       .  S
Fe351       O360   1.984       .  S
O352        C359   1.267       .  A
O353        C367   1.267       .  A
O354        C359   1.267       .  A
O355        C358   1.267       .  A
O356        C368   1.267       .  A
O357        C370   1.267       .  A
C358        O363   1.267       .  A
C358        C456   1.433       .  S
C359        C459   1.433       .  S
O361        C364   1.267       .  A
O362        C364   1.267       .  A
C364        C464   1.433       .  S
O365        C370   1.267       .  A
O366        C368   1.267       .  A
C367        O369   1.267       .  A
C367        C453   1.434       .  S
C368        C458   1.434       .  S
C370        C461   1.433       .  S
C371        C445   1.464       .  S
C371        C448   1.467       .  S
C371        C449   1.465       .  S
C371        C451   1.467       .  S
C372        C438   1.464       .  S
C372        C439   1.465       .  S
C372        C441   1.467       .  S
C372        C444   1.467       .  S
C373        C432   1.464       .  S
C373        C433   1.467       .  S
C373        C436   1.467       .  S
C373        C450   1.465       .  S
C374        C429   1.465       .  S
C374        C435   1.467       .  S
C374        C442   1.467       .  S
C374        C457   1.464       .  S
C375        C427   1.467       .  S
C375        C430   1.465       .  S
C375        C447   1.467       .  S
C375        C454   1.465       .  S
C376        C423   1.464       .  S
C376        C425   1.467       .  S
C376        C428   1.467       .  S
C376        C440   1.465       .  S
C377        C419   1.467       .  S
C377        C421   1.465       .  S
C377        C426   1.467       .  S
C377        C455   1.464       .  S
C378        C415   1.465       .  S
C378        C417   1.467       .  S
C378        C434   1.467       .  S
C378        C463   1.464       .  S
C379        C409   1.465       .  S
C379        C412   1.465       .  S
C379        C413   1.467       .  S
C379        C418   1.467       .  S
C380        C414   1.467       .  S
C380        C422   1.465       .  S
C380        C443   1.467       .  S
C380        C460   1.464       .  S
C381        C406   1.464       .  S
C381        C408   1.467       .  S
C381        C411   1.465       .  S
C381        C420   1.467       .  S
C382        C407   1.467       .  S
C382        C416   1.465       .  S
C382        C452   1.467       .  S
C382        C462   1.464       .  S
Fe383       O399   2.064       .  S
Fe383       O389   2.064       .  S
Fe383       O396   2.064       .  S
Fe383       O388   2.064       .  S
Fe383       O394   1.984       .  S
Fe384       O387   2.063       .  S
Fe384       O391   2.063       .  S
Fe384       O395   2.063       .  S
Fe384       O400   2.063       .  S
Fe384       O394   1.984       .  S
Fe385       O403   2.064       .  S
Fe385       O390   2.064       .  S
Fe385       O397   2.064       .  S
Fe385       O386   2.064       .  S
Fe385       O394   1.984       .  S
O386        C393   1.267       .  A
O387        C401   1.267       .  A
O388        C393   1.267       .  A
O389        C392   1.267       .  A
O390        C402   1.267       .  A
O391        C404   1.267       .  A
C392        O397   1.267       .  A
C392        C410   1.434       .  S
C393        C405   1.434       .  S
O395        C398   1.267       .  A
O396        C398   1.267       .  A
C398        C424   1.433       .  S
O399        C404   1.267       .  A
O400        C402   1.267       .  A
C401        O403   1.267       .  A
C401        C431   1.433       .  S
C402        C446   1.433       .  S
C404        C437   1.433       .  S
C405        C406   1.206       .  T
C407        C872   1.208   1_455  T
C408        C871   1.208       .  T
C409        C410   1.206       .  T
C417        C882   1.208   1_455  T
C418        C881   1.208       .  T
C423        C424   1.206       .  T
C425        C426   1.208       .  T
C427        C892   1.208   1_455  T
C428        C891   1.208       .  T
C431        C432   1.206       .  T
C433        C434   1.208       .  T
C437        C438   1.206       .  T
C441        C906   1.208       .  T
C442        C905   1.208   1_455  T
C443        C444   1.208       .  T
C445        C446   1.206       .  T
C451        C452   1.208       .  T
C453        C454   1.206       .  T
C455        C456   1.206       .  T
C457        C458   1.206       .  T
C459        C460   1.206       .  T
C461        C462   1.206       .  T
C463        C464   1.206       .  T
Fe465       O481   2.063       .  S
Fe465       O471   2.063       .  S
Fe465       O478   2.063       .  S
Fe465       O470   2.063       .  S
Fe465       O476   1.984       .  S
Fe466       O469   2.064       .  S
Fe466       O473   2.064       .  S
Fe466       O477   2.064       .  S
Fe466       O482   2.064       .  S
Fe466       O476   1.984       .  S
Fe467       O485   2.064       .  S
Fe467       O472   2.064       .  S
Fe467       O479   2.064       .  S
Fe467       O468   2.064       .  S
Fe467       O476   1.984       .  S
O468        C475   1.267       .  A
O469        C483   1.267       .  A
O470        C475   1.267       .  A
O471        C474   1.267       .  A
O472        C484   1.267       .  A
O473        C486   1.267       .  A
C474        O479   1.267       .  A
C474        C572   1.433       .  S
C475        C575   1.433       .  S
O477        C480   1.267       .  A
O478        C480   1.267       .  A
C480        C580   1.433       .  S
O481        C486   1.267       .  A
O482        C484   1.267       .  A
C483        O485   1.267       .  A
C483        C569   1.434       .  S
C484        C574   1.434       .  S
C486        C577   1.433       .  S
C487        C561   1.464       .  S
C487        C564   1.467       .  S
C487        C565   1.465       .  S
C487        C567   1.467       .  S
C488        C554   1.464       .  S
C488        C555   1.465       .  S
C488        C557   1.467       .  S
C488        C560   1.467       .  S
C489        C548   1.464       .  S
C489        C549   1.467       .  S
C489        C552   1.467       .  S
C489        C566   1.465       .  S
C490        C545   1.465       .  S
C490        C551   1.467       .  S
C490        C558   1.467       .  S
C490        C573   1.464       .  S
C491        C543   1.467       .  S
C491        C546   1.465       .  S
C491        C563   1.467       .  S
C491        C570   1.465       .  S
C492        C539   1.464       .  S
C492        C541   1.467       .  S
C492        C544   1.467       .  S
C492        C556   1.465       .  S
C493        C535   1.467       .  S
C493        C537   1.465       .  S
C493        C542   1.467       .  S
C493        C571   1.464       .  S
C494        C531   1.465       .  S
C494        C533   1.467       .  S
C494        C550   1.467       .  S
C494        C579   1.464       .  S
C495        C525   1.465       .  S
C495        C528   1.465       .  S
C495        C529   1.467       .  S
C495        C534   1.467       .  S
C496        C530   1.467       .  S
C496        C538   1.465       .  S
C496        C559   1.467       .  S
C496        C576   1.464       .  S
C497        C522   1.464       .  S
C497        C524   1.467       .  S
C497        C527   1.465       .  S
C497        C536   1.467       .  S
C498        C523   1.467       .  S
C498        C532   1.465       .  S
C498        C568   1.467       .  S
C498        C578   1.464       .  S
Fe499       O515   2.064       .  S
Fe499       O505   2.064       .  S
Fe499       O512   2.064       .  S
Fe499       O504   2.064       .  S
Fe499       O510   1.984       .  S
Fe500       O503   2.063       .  S
Fe500       O507   2.063       .  S
Fe500       O511   2.063       .  S
Fe500       O516   2.063       .  S
Fe500       O510   1.984       .  S
Fe501       O519   2.064       .  S
Fe501       O506   2.064       .  S
Fe501       O513   2.064       .  S
Fe501       O502   2.064       .  S
Fe501       O510   1.984       .  S
O502        C509   1.267       .  A
O503        C517   1.267       .  A
O504        C509   1.267       .  A
O505        C508   1.267       .  A
O506        C518   1.267       .  A
O507        C520   1.267       .  A
C508        O513   1.267       .  A
C508        C526   1.434       .  S
C509        C521   1.434       .  S
O511        C514   1.267       .  A
O512        C514   1.267       .  A
C514        C540   1.433       .  S
O515        C520   1.267       .  A
O516        C518   1.267       .  A
C517        O519   1.267       .  A
C517        C547   1.433       .  S
C518        C562   1.433       .  S
C520        C553   1.433       .  S
C521        C522   1.206       .  T
C525        C526   1.206       .  T
C527        C644   1.206   1_554  T
C528        C643   1.206       .  T
C529        C762   1.208   1_545  T
C530        C761   1.208       .  T
C531        C648   1.206       .  T
C532        C647   1.206   1_554  T
C535        C768   1.208       .  T
C536        C767   1.208   1_545  T
C537        C654   1.206   1_554  T
C538        C653   1.206       .  T
C539        C540   1.206       .  T
C541        C542   1.208       .  T
C545        C662   1.206       .  T
C546        C661   1.206   1_554  T
C547        C548   1.206       .  T
C549        C550   1.208       .  T
C551        C784   1.208       .  T
C552        C783   1.208   1_545  T
C553        C554   1.206       .  T
C555        C672   1.206       .  T
C556        C671   1.206   1_554  T
C559        C560   1.208       .  T
C561        C562   1.206       .  T
C563        C796   1.208       .  T
C564        C795   1.208   1_545  T
C565        C682   1.206   1_554  T
C566        C681   1.206       .  T
C567        C568   1.208       .  T
C569        C570   1.206       .  T
C571        C572   1.206       .  T
C573        C574   1.206       .  T
C575        C576   1.206       .  T
C577        C578   1.206       .  T
C579        C580   1.206       .  T
Fe581       O597   2.063       .  S
Fe581       O587   2.063       .  S
Fe581       O594   2.063       .  S
Fe581       O586   2.063       .  S
Fe581       O592   1.984       .  S
Fe582       O585   2.064       .  S
Fe582       O589   2.064       .  S
Fe582       O593   2.064       .  S
Fe582       O598   2.064       .  S
Fe582       O592   1.984       .  S
Fe583       O601   2.064       .  S
Fe583       O588   2.064       .  S
Fe583       O595   2.064       .  S
Fe583       O584   2.064       .  S
Fe583       O592   1.984       .  S
O584        C591   1.267       .  A
O585        C599   1.267       .  A
O586        C591   1.267       .  A
O587        C590   1.267       .  A
O588        C600   1.267       .  A
O589        C602   1.267       .  A
C590        O595   1.267       .  A
C590        C688   1.433       .  S
C591        C691   1.433       .  S
O593        C596   1.267       .  A
O594        C596   1.267       .  A
C596        C696   1.433       .  S
O597        C602   1.267       .  A
O598        C600   1.267       .  A
C599        O601   1.267       .  A
C599        C685   1.434       .  S
C600        C690   1.434       .  S
C602        C693   1.433       .  S
C603        C677   1.464       .  S
C603        C680   1.467       .  S
C603        C681   1.465       .  S
C603        C683   1.467       .  S
C604        C670   1.464       .  S
C604        C671   1.465       .  S
C604        C673   1.467       .  S
C604        C676   1.467       .  S
C605        C664   1.464       .  S
C605        C665   1.467       .  S
C605        C668   1.467       .  S
C605        C682   1.465       .  S
C606        C661   1.465       .  S
C606        C667   1.467       .  S
C606        C674   1.467       .  S
C606        C689   1.464       .  S
C607        C659   1.467       .  S
C607        C662   1.465       .  S
C607        C679   1.467       .  S
C607        C686   1.465       .  S
C608        C655   1.464       .  S
C608        C657   1.467       .  S
C608        C660   1.467       .  S
C608        C672   1.465       .  S
C609        C651   1.467       .  S
C609        C653   1.465       .  S
C609        C658   1.467       .  S
C609        C687   1.464       .  S
C610        C647   1.465       .  S
C610        C649   1.467       .  S
C610        C666   1.467       .  S
C610        C695   1.464       .  S
C611        C641   1.465       .  S
C611        C644   1.465       .  S
C611        C645   1.467       .  S
C611        C650   1.467       .  S
C612        C646   1.467       .  S
C612        C654   1.465       .  S
C612        C675   1.467       .  S
C612        C692   1.464       .  S
C613        C638   1.464       .  S
C613        C640   1.467       .  S
C613        C643   1.465       .  S
C613        C652   1.467       .  S
C614        C639   1.467       .  S
C614        C648   1.465       .  S
C614        C684   1.467       .  S
C614        C694   1.464       .  S
Fe615       O631   2.064       .  S
Fe615       O621   2.064       .  S
Fe615       O628   2.064       .  S
Fe615       O620   2.064       .  S
Fe615       O626   1.984       .  S
Fe616       O619   2.063       .  S
Fe616       O623   2.063       .  S
Fe616       O627   2.063       .  S
Fe616       O632   2.063       .  S
Fe616       O626   1.984       .  S
Fe617       O635   2.064       .  S
Fe617       O622   2.064       .  S
Fe617       O629   2.064       .  S
Fe617       O618   2.064       .  S
Fe617       O626   1.984       .  S
O618        C625   1.267       .  A
O619        C633   1.267       .  A
O620        C625   1.267       .  A
O621        C624   1.267       .  A
O622        C634   1.267       .  A
O623        C636   1.267       .  A
C624        O629   1.267       .  A
C624        C642   1.434       .  S
C625        C637   1.434       .  S
O627        C630   1.267       .  A
O628        C630   1.267       .  A
C630        C656   1.433       .  S
O631        C636   1.267       .  A
O632        C634   1.267       .  A
C633        O635   1.267       .  A
C633        C663   1.433       .  S
C634        C678   1.433       .  S
C636        C669   1.433       .  S
C637        C638   1.206       .  T
C641        C642   1.206       .  T
C645        C878   1.208   1_545  T
C646        C877   1.208       .  T
C651        C884   1.208       .  T
C652        C883   1.208   1_545  T
C655        C656   1.206       .  T
C657        C658   1.208       .  T
C663        C664   1.206       .  T
C665        C666   1.208       .  T
C667        C900   1.208       .  T
C668        C899   1.208   1_545  T
C669        C670   1.206       .  T
C675        C676   1.208       .  T
C677        C678   1.206       .  T
C679        C912   1.208       .  T
C680        C911   1.208   1_545  T
C683        C684   1.208       .  T
C685        C686   1.206       .  T
C687        C688   1.206       .  T
C689        C690   1.206       .  T
C691        C692   1.206       .  T
C693        C694   1.206       .  T
C695        C696   1.206       .  T
Fe697       O713   2.063       .  S
Fe697       O703   2.063       .  S
Fe697       O710   2.063       .  S
Fe697       O702   2.063       .  S
Fe697       O708   1.984       .  S
Fe698       O701   2.064       .  S
Fe698       O705   2.064       .  S
Fe698       O709   2.064       .  S
Fe698       O714   2.064       .  S
Fe698       O708   1.984       .  S
Fe699       O717   2.064       .  S
Fe699       O704   2.064       .  S
Fe699       O711   2.064       .  S
Fe699       O700   2.064       .  S
Fe699       O708   1.984       .  S
O700        C707   1.267       .  A
O701        C715   1.267       .  A
O702        C707   1.267       .  A
O703        C706   1.267       .  A
O704        C716   1.267       .  A
O705        C718   1.267       .  A
C706        O711   1.267       .  A
C706        C804   1.433       .  S
C707        C807   1.433       .  S
O709        C712   1.267       .  A
O710        C712   1.267       .  A
C712        C812   1.433       .  S
O713        C718   1.267       .  A
O714        C716   1.267       .  A
C715        O717   1.267       .  A
C715        C801   1.434       .  S
C716        C806   1.434       .  S
C718        C809   1.433       .  S
C719        C793   1.464       .  S
C719        C796   1.467       .  S
C719        C797   1.465       .  S
C719        C799   1.467       .  S
C720        C786   1.464       .  S
C720        C787   1.465       .  S
C720        C789   1.467       .  S
C720        C792   1.467       .  S
C721        C780   1.464       .  S
C721        C781   1.467       .  S
C721        C784   1.467       .  S
C721        C798   1.465       .  S
C722        C777   1.465       .  S
C722        C783   1.467       .  S
C722        C790   1.467       .  S
C722        C805   1.464       .  S
C723        C775   1.467       .  S
C723        C778   1.465       .  S
C723        C795   1.467       .  S
C723        C802   1.465       .  S
C724        C771   1.464       .  S
C724        C773   1.467       .  S
C724        C776   1.467       .  S
C724        C788   1.465       .  S
C725        C767   1.467       .  S
C725        C769   1.465       .  S
C725        C774   1.467       .  S
C725        C803   1.464       .  S
C726        C763   1.465       .  S
C726        C765   1.467       .  S
C726        C782   1.467       .  S
C726        C811   1.464       .  S
C727        C757   1.465       .  S
C727        C760   1.465       .  S
C727        C761   1.467       .  S
C727        C766   1.467       .  S
C728        C762   1.467       .  S
C728        C770   1.465       .  S
C728        C791   1.467       .  S
C728        C808   1.464       .  S
C729        C754   1.464       .  S
C729        C756   1.467       .  S
C729        C759   1.465       .  S
C729        C768   1.467       .  S
C730        C755   1.467       .  S
C730        C764   1.465       .  S
C730        C800   1.467       .  S
C730        C810   1.464       .  S
Fe731       O747   2.064       .  S
Fe731       O737   2.064       .  S
Fe731       O744   2.064       .  S
Fe731       O736   2.064       .  S
Fe731       O742   1.984       .  S
Fe732       O735   2.063       .  S
Fe732       O739   2.063       .  S
Fe732       O743   2.063       .  S
Fe732       O748   2.063       .  S
Fe732       O742   1.984       .  S
Fe733       O751   2.064       .  S
Fe733       O738   2.064       .  S
Fe733       O745   2.064       .  S
Fe733       O734   2.064       .  S
Fe733       O742   1.984       .  S
O734        C741   1.267       .  A
O735        C749   1.267       .  A
O736        C741   1.267       .  A
O737        C740   1.267       .  A
O738        C750   1.267       .  A
O739        C752   1.267       .  A
C740        O745   1.267       .  A
C740        C758   1.434       .  S
C741        C753   1.434       .  S
O743        C746   1.267       .  A
O744        C746   1.267       .  A
C746        C772   1.433       .  S
O747        C752   1.267       .  A
O748        C750   1.267       .  A
C749        O751   1.267       .  A
C749        C779   1.433       .  S
C750        C794   1.433       .  S
C752        C785   1.433       .  S
C753        C754   1.206       .  T
C757        C758   1.206       .  T
C759        C876   1.206   1_554  T
C760        C875   1.206       .  T
C763        C880   1.206       .  T
C764        C879   1.206   1_554  T
C769        C886   1.206   1_554  T
C770        C885   1.206       .  T
C771        C772   1.206       .  T
C773        C774   1.208       .  T
C777        C894   1.206       .  T
C778        C893   1.206   1_554  T
C779        C780   1.206       .  T
C781        C782   1.208       .  T
C785        C786   1.206       .  T
C787        C904   1.206       .  T
C788        C903   1.206   1_554  T
C791        C792   1.208       .  T
C793        C794   1.206       .  T
C797        C914   1.206   1_554  T
C798        C913   1.206       .  T
C799        C800   1.208       .  T
C801        C802   1.206       .  T
C803        C804   1.206       .  T
C805        C806   1.206       .  T
C807        C808   1.206       .  T
C809        C810   1.206       .  T
C811        C812   1.206       .  T
Fe813       O829   2.063       .  S
Fe813       O819   2.063       .  S
Fe813       O826   2.063       .  S
Fe813       O818   2.063       .  S
Fe813       O824   1.984       .  S
Fe814       O817   2.064       .  S
Fe814       O821   2.064       .  S
Fe814       O825   2.064       .  S
Fe814       O830   2.064       .  S
Fe814       O824   1.984       .  S
Fe815       O833   2.064       .  S
Fe815       O820   2.064       .  S
Fe815       O827   2.064       .  S
Fe815       O816   2.064       .  S
Fe815       O824   1.984       .  S
O816        C823   1.267       .  A
O817        C831   1.267       .  A
O818        C823   1.267       .  A
O819        C822   1.267       .  A
O820        C832   1.267       .  A
O821        C834   1.267       .  A
C822        O827   1.267       .  A
C822        C920   1.433       .  S
C823        C923   1.433       .  S
O825        C828   1.267       .  A
O826        C828   1.267       .  A
C828        C928   1.433       .  S
O829        C834   1.267       .  A
O830        C832   1.267       .  A
C831        O833   1.267       .  A
C831        C917   1.434       .  S
C832        C922   1.434       .  S
C834        C925   1.433       .  S
C835        C909   1.464       .  S
C835        C912   1.467       .  S
C835        C913   1.465       .  S
C835        C915   1.467       .  S
C836        C902   1.464       .  S
C836        C903   1.465       .  S
C836        C905   1.467       .  S
C836        C908   1.467       .  S
C837        C896   1.464       .  S
C837        C897   1.467       .  S
C837        C900   1.467       .  S
C837        C914   1.465       .  S
C838        C893   1.465       .  S
C838        C899   1.467       .  S
C838        C906   1.467       .  S
C838        C921   1.464       .  S
C839        C891   1.467       .  S
C839        C894   1.465       .  S
C839        C911   1.467       .  S
C839        C918   1.465       .  S
C840        C887   1.464       .  S
C840        C889   1.467       .  S
C840        C892   1.467       .  S
C840        C904   1.465       .  S
C841        C883   1.467       .  S
C841        C885   1.465       .  S
C841        C890   1.467       .  S
C841        C919   1.464       .  S
C842        C879   1.465       .  S
C842        C881   1.467       .  S
C842        C898   1.467       .  S
C842        C927   1.464       .  S
C843        C873   1.465       .  S
C843        C876   1.465       .  S
C843        C877   1.467       .  S
C843        C882   1.467       .  S
C844        C878   1.467       .  S
C844        C886   1.465       .  S
C844        C907   1.467       .  S
C844        C924   1.464       .  S
C845        C870   1.464       .  S
C845        C872   1.467       .  S
C845        C875   1.465       .  S
C845        C884   1.467       .  S
C846        C871   1.467       .  S
C846        C880   1.465       .  S
C846        C916   1.467       .  S
C846        C926   1.464       .  S
Fe847       O863   2.064       .  S
Fe847       O853   2.064       .  S
Fe847       O860   2.064       .  S
Fe847       O852   2.064       .  S
Fe847       O858   1.984       .  S
Fe848       O851   2.063       .  S
Fe848       O855   2.063       .  S
Fe848       O859   2.063       .  S
Fe848       O864   2.063       .  S
Fe848       O858   1.984       .  S
Fe849       O867   2.064       .  S
Fe849       O854   2.064       .  S
Fe849       O861   2.064       .  S
Fe849       O850   2.064       .  S
Fe849       O858   1.984       .  S
O850        C857   1.267       .  A
O851        C865   1.267       .  A
O852        C857   1.267       .  A
O853        C856   1.267       .  A
O854        C866   1.267       .  A
O855        C868   1.267       .  A
C856        O861   1.267       .  A
C856        C874   1.434       .  S
C857        C869   1.434       .  S
O859        C862   1.267       .  A
O860        C862   1.267       .  A
C862        C888   1.433       .  S
O863        C868   1.267       .  A
O864        C866   1.267       .  A
C865        O867   1.267       .  A
C865        C895   1.433       .  S
C866        C910   1.433       .  S
C868        C901   1.433       .  S
C869        C870   1.206       .  T
C873        C874   1.206       .  T
C887        C888   1.206       .  T
C889        C890   1.208       .  T
C895        C896   1.206       .  T
C897        C898   1.208       .  T
C901        C902   1.206       .  T
C907        C908   1.208       .  T
C909        C910   1.206       .  T
C915        C916   1.208       .  T
C917        C918   1.206       .  T
C919        C920   1.206       .  T
C921        C922   1.206       .  T
C923        C924   1.206       .  T
C925        C926   1.206       .  T
C927        C928   1.206       .  T
