geometry optimzed in LAMMPS
_audit_creation_date              2020-11-30 
_audit_creation_method            'lammps2cif' 
_symmetry_space_group_name_H-M    'P1' 
_symmetry_Int_Tables_number       1 
_symmetry_cell_setting            triclinic 
loop_ 
_symmetry_equiv_pos_as_xyz 
  x,y,z 
_cell_length_a                    33.90864431 
_cell_length_b                    21.12386870568237 
_cell_length_c                    45.76832898141555 
_cell_angle_alpha                 88.14678328403393 
_cell_angle_beta                  90.36656965780901 
_cell_angle_gamma                 90.28820305596376 
loop_ 
_atom_site_label 
_atom_site_type_symbol 
_atom_site_fract_x 
_atom_site_fract_y 
_atom_site_fract_z 
_atom_site_charge 
C1          C  0.94791348  0.37826310  0.10434368     0.85900
C2          C  0.97570308  0.43573243  0.10455418    -0.54300
C3          C  0.00357997  0.43709368  0.08314578     0.08800
C4          C  0.00116826  0.37921944  0.06327319     0.19800
C5          C  0.93040574  0.37948409  0.07320655    -0.55000
C6          C  0.95834856  0.37970845  0.05171821     0.09000
C7          C  0.97495690  0.32002062  0.10552499    -0.54600
C8          C  0.00279300  0.31983054  0.08399217     0.09500
H9          H  0.97296374  0.47292323  0.12024735     0.14000
H10         H  0.02351701  0.37981224  0.04562713    -0.00200
H11         H  0.89894895  0.38014266  0.06855767     0.14300
H12         H  0.97172693  0.28171094  0.12174206     0.14100
C13         C  0.59166481  0.13263655  0.35404970     0.85900
C14         C  0.56347554  0.07543232  0.35512731    -0.54300
C15         C  0.53556303  0.07589112  0.33339666     0.08800
C16         C  0.53814561  0.13505046  0.31262260     0.19800
C17         C  0.60900588  0.13274354  0.32293284    -0.55000
C18         C  0.58083038  0.13384108  0.30122614     0.09000
C19         C  0.56509069  0.19110087  0.35390827    -0.54600
C20         C  0.53709384  0.19314778  0.33239606     0.09500
H21         H  0.56614726  0.03705054  0.37139028     0.14000
H22         H  0.51560407  0.13621362  0.29489889    -0.00200
H23         H  0.64041065  0.13187196  0.31849001     0.14300
H24         H  0.56851952  0.22827564  0.36961243     0.14100
O25         O  0.59276709  0.18631257  0.25548427    -0.79100
C26         C  0.68839952  0.24028907  0.19341890     0.82000
O27         O  0.52129707  0.22011107  0.17107404    -0.80200
O28         O  0.62997233  0.15538477  0.11880037    -0.81700
O29         O  0.66293697  0.02634455  0.20994944    -0.81500
O30         O  0.59395242  0.08054858  0.25728884    -0.80100
Zn31       Zn  0.60362485  0.21238122  0.21299113     1.55700
O32         O  0.67520167  0.05551646  0.16385418    -0.81500
Cd33       Cd  0.60463391  0.05907300  0.21359661     1.59700
Cd34       Cd  0.55254142  0.13764200  0.16293676     1.59600
O35         O  0.56235218  0.99290741  0.19967415    -0.81500
O36         O  0.59993856  0.13814396  0.18864639    -1.92000
Cd37       Cd  0.64434277  0.13780274  0.16130205     1.59900
O38         O  0.52319400  0.05208400  0.17022131    -0.81400
O39         O  0.68490263  0.20235015  0.17266651    -0.80100
C40         C  0.52969802  0.27101766  0.18439605     0.82500
C41         C  0.59003788  0.13350255  0.26968230     0.82100
O42         O  0.66002746  0.24989645  0.21103141    -0.79000
C43         C  0.68553918  0.02763508  0.18762868     0.82900
O44         O  0.56094132  0.27615741  0.19999446    -0.79100
C45         C  0.53176713  0.99937346  0.18328423     0.83100
C46         C  0.59769266  0.15129279  0.10487914     0.83400
O47         O  0.56509726  0.14095214  0.11792996    -0.81600
C48         C  0.64366391  0.15757714  0.48581287     0.85900
C49         C  0.67088243  0.09915397  0.48569047    -0.54300
C50         C  0.68986599  0.09092686  0.45981259     0.08800
C51         C  0.67877283  0.14086205  0.43607301     0.19800
C52         C  0.67119144  0.21273725  0.47586720    -0.55000
C53         C  0.69156696  0.20228103  0.45073802     0.09000
C54         C  0.61532140  0.14944890  0.46022116    -0.54600
C55         C  0.63313044  0.14113876  0.43401617     0.09500
H56         H  0.67355979  0.05772050  0.00415176     0.14000
H57         H  0.69341177  0.13381685  0.41485493    -0.00200
H58         H  0.68540671  0.23684827  0.98760319     0.14300
H59         H  0.58346673  0.15073060  0.46266652     0.14100
O60         O  0.95012440  0.33117419  0.50686351    -0.79100
C61         C  0.85737738  0.26596188  0.44159001     0.82000
O62         O  0.01449175  0.30365429  0.41969726    -0.80200
O63         O  0.90263274  0.39800196  0.37272983    -0.81700
O64         O  0.87252389  0.49395040  0.46086524    -0.81500
O65         O  0.94309784  0.43475888  0.00728008    -0.80100
Zn66       Zn  0.93622389  0.30777310  0.46517096     1.55700
O67         O  0.84672543  0.43239733  0.42695024    -0.81500
Cd68       Cd  0.93144059  0.46138487  0.46384030     1.59700
Cd69       Cd  0.98365782  0.38915280  0.41369533     1.59600
O70         O  0.97378960  0.52951717  0.45037768    -0.81500
O71         O  0.93749633  0.38396761  0.44024653    -1.92000
Cd72       Cd  0.89135228  0.37564124  0.41473030     1.59900
O73         O  0.01415596  0.47277505  0.42284633    -0.81400
O74         O  0.86906238  0.28644765  0.41682058    -0.80100
C75         C  0.00708212  0.25145005  0.43380007     0.82500
C76         C  0.94845496  0.38114411  0.02029788     0.82100
O77         O  0.87935757  0.27189028  0.46416611    -0.79000
C78         C  0.84331201  0.47597340  0.44519687     0.82900
O79         O  0.97751557  0.24540295  0.45093207    -0.79100
C80         C  0.00532639  0.52427533  0.43539046     0.83100
C81         C  0.93351120  0.40367432  0.35743865     0.83400
O82         O  0.96777810  0.39880877  0.36900010    -0.81600
C83         C  0.89248167  0.40656578  0.23435717     0.85900
C84         C  0.86788543  0.46359172  0.22295807    -0.54300
C85         C  0.84748581  0.45354177  0.19761393     0.08800
C86         C  0.85891803  0.39090227  0.18369708     0.19800
C87         C  0.86398661  0.34954539  0.23352678    -0.55000
C88         C  0.84548650  0.34219173  0.20727410     0.09000
C89         C  0.92186480  0.39582051  0.20990259    -0.54600
C90         C  0.90472271  0.38813139  0.18316464     0.09500
H91         H  0.86161474  0.50364629  0.23645933     0.14000
H92         H  0.84489563  0.38464762  0.16205884    -0.00200
H93         H  0.85569774  0.32221628  0.25307824     0.14300
H94         H  0.95361689  0.39611124  0.21286266     0.14100
C95         C  0.44664837  0.38477443  0.16003512     0.85900
C96         C  0.47389505  0.32715841  0.15971049    -0.54300
C97         C  0.50217559  0.32550447  0.18103965     0.08800
C98         C  0.50063442  0.38308956  0.20112818     0.19800
C99         C  0.42961019  0.38345669  0.19119199    -0.55000
C100        C  0.45797226  0.38262178  0.21272603     0.09000
C101        C  0.47415326  0.44275093  0.15906355    -0.54600
C102        C  0.50232125  0.44272598  0.18059617     0.09500
H103        H  0.47064755  0.29022892  0.14387371     0.14000
H104        H  0.52334913  0.38235623  0.21872870    -0.00200
H105        H  0.39823377  0.38373056  0.19579975     0.14300
H106        H  0.47088388  0.48129842  0.14295071     0.14100
C107        C  0.08939623  0.13886612  0.41031588     0.85900
C108        C  0.06214949  0.19675368  0.40893242    -0.54300
C109        C  0.03398286  0.19666146  0.43017815     0.08800
C110        C  0.03553810  0.13715118  0.45086851     0.19800
C111        C  0.10647024  0.13773951  0.44153685    -0.55000
C112        C  0.07819512  0.13677503  0.46275975     0.09000
C113        C  0.06194155  0.08102387  0.40976377    -0.54600
C114        C  0.03373788  0.07934215  0.43090196     0.09500
H115        H  0.06556592  0.23522121  0.39279408     0.14000
H116        H  0.01292865  0.13636558  0.46833407    -0.00200
H117        H  0.13781665  0.13786171  0.44643089     0.14300
H118        H  0.06511726  0.04387445  0.39406955     0.14100
O119        O  0.09126439  0.08012980  0.00705417    -0.79100
C120        C  0.19164468  0.03716692  0.06674615     0.82000
O121        O  0.02364255  0.04324795  0.09277162    -0.80200
O122        O  0.13548142  0.11918624  0.14091761    -0.81700
O123        O  0.15962852  0.24416417  0.04875253    -0.81500
O124        O  0.08749717  0.18578301  0.00546600    -0.80100
Zn125      Zn  0.10423390  0.05523252  0.04959009     1.55700
O126        O  0.17104653  0.22527475  0.09574160    -0.81500
Cd127      Cd  0.10134047  0.20868723  0.04812309     1.59700
Cd128      Cd  0.05397802  0.12763798  0.10079718     1.59600
O129        O  0.05922301  0.27227954  0.06287272    -0.81500
O130        O  0.09956665  0.12999509  0.07342548    -1.92000
Cd131      Cd  0.14614550  0.13767984  0.09848447     1.59900
O132        O  0.02284033  0.21291737  0.09418042    -0.81400
O133        O  0.18914291  0.07886020  0.08596087    -0.80100
C134        C  0.03225772  0.99255204  0.07947576     0.82500
C135        C  0.08538645  0.13261737  0.99310407     0.82100
O136        O  0.16179444  0.02178603  0.05113802    -0.79000
C137        C  0.18212808  0.24783254  0.07115853     0.82900
O138        O  0.06301107  0.98888674  0.06350946    -0.79100
C139        C  0.02983643  0.26535234  0.08013237     0.83100
C140        C  0.10506017  0.11728332  0.15682329     0.83400
O141        O  0.07056949  0.12203550  0.14560523    -0.81600
C142        C  0.14618386  0.12078445  0.28049725     0.85900
C143        C  0.17505096  0.17718954  0.28310008    -0.54300
C144        C  0.19329177  0.18089460  0.30969796     0.08800
C145        C  0.17921433  0.12967938  0.33175104     0.19800
C146        C  0.17006196  0.06208037  0.29065833    -0.55000
C147        C  0.19069541  0.06879278  0.31618518     0.09000
C148        C  0.11651485  0.12910324  0.30489993    -0.54600
C149        C  0.13340422  0.13318152  0.33192979     0.09500
H150        H  0.18410833  0.20637657  0.26430782     0.14000
H151        H  0.19275323  0.13366821  0.35367546    -0.00200
H152        H  0.17538623  0.02327863  0.27621767     0.14300
H153        H  0.08487370  0.13037710  0.30166508     0.14100
O154        O  0.37894563  0.26958233  0.30516709    -0.79100
C155        C  0.44880811  0.38343639  0.24421968     0.82000
O156        O  0.51966483  0.30005161  0.34087458    -0.80200
O157        O  0.47596733  0.52729301  0.31222719    -0.81700
O158        O  0.36360489  0.46204556  0.34933330    -0.81500
O159        O  0.35667367  0.31336907  0.34537984    -0.80100
Zn160      Zn  0.43533040  0.30641519  0.30149196     1.55700
O161        O  0.37581251  0.49095047  0.30313385    -0.81500
Cd162      Cd  0.39657886  0.38204977  0.35359045     1.59700
Cd163      Cd  0.48891062  0.38303148  0.34929338     1.59600
O164        O  0.41336776  0.37170103  0.39605578    -0.81500
O165        O  0.43998174  0.38129387  0.32522371    -1.92000
Cd166      Cd  0.43428933  0.45928085  0.29962220     1.59900
O167        O  0.47865561  0.38061164  0.39477912    -0.77000
O168        O  0.44526753  0.43670547  0.25632450    -0.80100
C169        C  0.51007259  0.24820472  0.32873681     0.82500
C170        C  0.35188898  0.27693935  0.32414258     0.82100
O171        O  0.44551917  0.33094908  0.25863328    -0.79000
C172        C  0.35328595  0.48972317  0.32549102     0.82900
O173        O  0.47792025  0.24247377  0.31425776    -0.79100
C174        C  0.44650217  0.37419086  0.40891250     0.83100
C175        C  0.50751879  0.52178955  0.32758528     0.83400
O176        O  0.51738418  0.46930188  0.34039930    -0.81600
C177        C  0.39542085  0.36566450  0.02815168     0.85900
C178        C  0.36778289  0.30977371  0.03693725    -0.54300
C179        C  0.34716357  0.31798080  0.06216793     0.08800
C180        C  0.35955577  0.37831402  0.07787595     0.19800
C181        C  0.36794743  0.42377806  0.02892500    -0.55000
C182        C  0.34840038  0.42976624  0.05479388     0.09000
C183        C  0.42333530  0.37231527  0.05399416    -0.54600
C184        C  0.40518703  0.37852511  0.08017254     0.09500
H185        H  0.35897377  0.27349702  0.02203140     0.14000
H186        H  0.34479155  0.38338299  0.09918413    -0.00200
H187        H  0.36095896  0.45267168  0.00953925     0.14300
H188        H  0.45524234  0.37168456  0.05171650     0.14100
C189        C  0.42949783  0.31455257  0.45423295    -0.13900
C190        C  0.44584911  0.36920054  0.44101354     0.08200
C191        C  0.45141935  0.42301271  0.45771877    -0.13900
C192        C  0.43755412  0.42365470  0.48654790    -0.13900
C193        C  0.41720434  0.37092274  0.49893126     0.08200
C194        C  0.41595770  0.31497198  0.48294609    -0.13900
H195        H  0.42507244  0.27248739  0.44168281     0.12200
H196        H  0.46359850  0.46603209  0.44778531     0.12200
H197        H  0.43747573  0.45830290  0.99859886     0.12200
H198        H  0.40358711  0.27135381  0.49191065     0.12200
C199        C  0.26190163  0.19983418  0.29076174    -0.13900
C200        C  0.23346706  0.20826658  0.31261850     0.08200
C201        C  0.24515401  0.23462403  0.33895344    -0.13900
C202        C  0.28411207  0.25416728  0.34308777    -0.13900
C203        C  0.31247660  0.24721097  0.32100147     0.08200
C204        C  0.30104519  0.21894849  0.29495659    -0.13900
H205        H  0.25408640  0.17709957  0.27066749     0.12200
H206        H  0.22405111  0.24022157  0.35637134     0.12200
H207        H  0.29182058  0.27574001  0.36347942     0.12200
H208        H  0.32208201  0.21292899  0.27755997     0.12200
C209        C  0.25423826  0.03537871  0.29230663    -0.13900
C210        C  0.23263596  0.04647580  0.31798519     0.08200
C211        C  0.25325591  0.04673096  0.34468031    -0.13900
C212        C  0.29394969  0.03591295  0.34576754    -0.13900
C213        C  0.31516108  0.02465782  0.32009177     0.08200
C214        C  0.29530074  0.52982073  0.29643786    -0.13900
H215        H  0.24038972  0.03708636  0.27098260     0.12200
H216        H  0.23796553  0.05560137  0.36487590     0.12200
H217        H  0.30872391  0.03533254  0.36677152     0.12200
H218        H  0.31234081  0.52836139  0.27654488     0.12200
C219        C  0.15098212  0.10210365  0.19865973    -0.13900
C220        C  0.11205400  0.11160371  0.18885270     0.08200
C221        C  0.08241516  0.12046397  0.20969229    -0.13900
C222        C  0.09216180  0.12203266  0.23965863    -0.13900
C223        C  0.13172646  0.11516283  0.24907747     0.08200
C224        C  0.16061430  0.10453456  0.22800097    -0.13900
H225        H  0.17480028  0.09459666  0.18349361     0.12200
H226        H  0.05219247  0.12801076  0.20280166     0.12200
H227        H  0.06875588  0.13043933  0.25497593     0.12200
H228        H  0.19131214  0.09923592  0.23429606     0.12200
C229        C  0.24707016  0.27572390  0.09389236    -0.13900
C230        C  0.22323675  0.27158827  0.06866668     0.08200
C231        C  0.24077910  0.28105294  0.04121100    -0.13900
C232        C  0.28123066  0.29333194  0.03902895    -0.13900
C233        C  0.30526145  0.29626055  0.06427709     0.08200
C234        C  0.28752133  0.28805988  0.09170880    -0.13900
H235        H  0.23458514  0.26817733  0.11546347     0.12200
H236        H  0.22342687  0.27768075  0.02137482     0.12200
H237        H  0.29334452  0.30229743  0.01746170     0.12200
H238        H  0.30496238  0.29126331  0.11149856     0.12200
C239        C  0.24084208  0.97776706  0.03705586    -0.13900
C240        C  0.23104067  0.00870148  0.06267724     0.08200
C241        C  0.25877944  0.50586715  0.08660156    -0.13900
C242        C  0.29739745  0.48542062  0.08303694    -0.13900
C243        C  0.30941416  0.46125682  0.05644217     0.08200
C244        C  0.28173155  0.45785882  0.03338882    -0.13900
H245        H  0.21899094  0.97128767  0.02005617     0.12200
H246        H  0.25070050  0.52452772  0.10752725     0.12200
H247        H  0.31782025  0.48778320  0.10124553     0.12200
H248        H  0.28567280  0.92974150  0.01360409     0.12200
C249        C  0.11976664  0.13892810  0.38601992    -0.17000
C250        C  0.10759367  0.13877330  0.35791912    -0.32200
H251        H  0.15074654  0.13703203  0.39157674     0.12000
H252        H  0.07611646  0.14062502  0.35369792     0.12600
C253        C  0.41677410  0.38479201  0.13496369    -0.17000
C254        C  0.42973616  0.38430992  0.10714092    -0.32200
H255        H  0.38545295  0.38287865  0.13971814     0.12000
H256        H  0.46152131  0.38591651  0.10384939     0.12600
C257        C  0.87989311  0.43175971  0.28643306    -0.13900
C258        C  0.90763630  0.41501741  0.26542370     0.08200
C259        C  0.94642850  0.40070556  0.27491018    -0.13900
C260        C  0.95622295  0.40035129  0.30485893    -0.13900
C261        C  0.92747947  0.41444073  0.32561025     0.08200
C262        C  0.88974575  0.43256081  0.31580868    -0.13900
H263        H  0.84959830  0.44190751  0.28022337     0.12200
H264        H  0.96870579  0.38643118  0.25976275     0.12200
H265        H  0.98550781  0.38593413  0.31184609     0.12200
H266        H  0.86687888  0.44446112  0.33105962     0.12200
C267        C  0.75757437  0.06708196  0.47997156    -0.13900
C268        C  0.72842622  0.05838253  0.45834628     0.08200
C269        C  0.73845074  0.02743242  0.43292599    -0.13900
C270        C  0.77567326  0.49878369  0.42541709    -0.13900
C271        C  0.80374354  0.50445579  0.44806762     0.08200
C272        C  0.79616515  0.04562119  0.47599850    -0.13900
H273        H  0.75091021  0.09259167  0.49946934     0.12200
H274        H  0.71675093  0.02119725  0.41576351     0.12200
H275        H  0.78330318  0.47628126  0.40529007     0.12200
H276        H  0.81803055  0.05298353  0.49291684     0.12200
C277        C  0.75763047  0.22588890  0.47369582    -0.13900
C278        C  0.73367045  0.22264624  0.44842346     0.08200
C279        C  0.75163460  0.22864196  0.42100663    -0.13900
C280        C  0.79227549  0.23912754  0.41881157    -0.13900
C281        C  0.81604996  0.24340578  0.44408703     0.08200
C282        C  0.79826107  0.23599325  0.47153065    -0.13900
H283        H  0.74528606  0.21863608  0.49530065     0.12200
H284        H  0.73416304  0.22509123  0.40116546     0.12200
H285        H  0.80495921  0.24521316  0.39727170     0.12200
H286        H  0.81557916  0.23949020  0.49139161     0.12200
C287        C  0.63395967  0.20872579  0.03187599    -0.13900
C288        C  0.62461579  0.15742254  0.01405762     0.08200
C289        C  0.59882338  0.11019171  0.02545418    -0.13900
C290        C  0.58643037  0.11080196  0.05465171    -0.13900
C291        C  0.59973935  0.15859099  0.07288056     0.08200
C292        C  0.62230784  0.20850393  0.06096907    -0.13900
H293        H  0.65161587  0.24843930  0.02449257     0.12200
H294        H  0.59036448  0.07067590  0.01226537     0.12200
H295        H  0.56913006  0.07147270  0.06353075     0.12200
H296        H  0.63259025  0.24612230  0.07468721     0.12200
C297        C  0.74712076  0.49509241  0.16504378    -0.13900
C298        C  0.72611402  0.00192753  0.18958534     0.08200
C299        C  0.74216374  0.98253033  0.21666490    -0.13900
C300        C  0.78218857  0.96811147  0.21924159    -0.13900
C301        C  0.80576798  0.47569994  0.19489174     0.08200
C302        C  0.78750553  0.48186986  0.16736329    -0.13900
H303        H  0.73415005  0.50127790  0.14343226     0.12200
H304        H  0.72402158  0.97995018  0.23609099     0.12200
H305        H  0.79335902  0.95233105  0.24039673     0.12200
H306        H  0.80448317  0.47652848  0.14766820     0.12200
C307        C  0.75578194  0.26487131  0.17483653    -0.13900
C308        C  0.72766056  0.26985858  0.19719467     0.08200
C309        C  0.73914552  0.29648471  0.22360862    -0.13900
C310        C  0.77805962  0.31722920  0.22757656    -0.13900
C311        C  0.80608480  0.31180099  0.20512809     0.08200
C312        C  0.79442275  0.28558019  0.17879198    -0.13900
H313        H  0.74804614  0.24437333  0.15420143     0.12200
H314        H  0.71829677  0.30044037  0.24129371     0.12200
H315        H  0.78582962  0.33928974  0.24783501     0.12200
H316        H  0.81522369  0.28148965  0.16106325     0.12200
C317        C  0.62135672  0.13261003  0.37929866    -0.17000
C318        C  0.60839092  0.13429258  0.40713742    -0.32200
H319        H  0.65267808  0.13392008  0.37459258     0.12000
H320        H  0.57662733  0.13331266  0.41045321     0.12600
C321        C  0.91788766  0.37913808  0.12898458    -0.17000
C322        C  0.93020435  0.38015006  0.15705930    -0.32200
H323        H  0.88673165  0.38172281  0.12359926     0.12000
H324        H  0.96181897  0.37785583  0.16115646     0.12600
C325        C  0.95048121  0.38149418  0.60400368     0.85900
C326        C  0.97801027  0.43925070  0.60423450    -0.54300
C327        C  0.00624483  0.44066200  0.58308064     0.08800
C328        C  0.00429349  0.38239296  0.56334670     0.19800
C329        C  0.93339705  0.38198462  0.57282753    -0.55000
C330        C  0.96152265  0.38234395  0.55153645     0.09000
C331        C  0.97772539  0.32358502  0.60564730    -0.54600
C332        C  0.00579793  0.32325100  0.58429983     0.09500
H333        H  0.97480556  0.47665644  0.61976937     0.14000
H334        H  0.02684539  0.38290151  0.54584653    -0.00200
H335        H  0.90196575  0.38214914  0.56798230     0.14300
H336        H  0.97433038  0.28546480  0.62192626     0.14100
C337        C  0.59106342  0.13046997  0.85324424     0.85900
C338        C  0.56280803  0.07353395  0.85427744    -0.54300
C339        C  0.53470355  0.07443986  0.83274792     0.08800
C340        C  0.53726071  0.13385406  0.81210711     0.19800
C341        C  0.60824630  0.13100013  0.82219458    -0.55000
C342        C  0.57997971  0.13276240  0.80064243     0.09000
C343        C  0.56467522  0.18915219  0.85346526    -0.54600
C344        C  0.53643020  0.19165067  0.83210514     0.09500
H345        H  0.56554116  0.03498742  0.87044006     0.14000
H346        H  0.51462866  0.13529300  0.79444837    -0.00200
H347        H  0.63963582  0.12971412  0.81765666     0.14300
H348        H  0.56836688  0.22598657  0.86928901     0.14100
O349        O  0.59373344  0.18483116  0.75516923    -0.79100
C350        C  0.68909926  0.23630640  0.69171414     0.82000
O351        O  0.52010303  0.21896462  0.67299560    -0.80200
O352        O  0.62811733  0.15216477  0.61887147    -0.81700
O353        O  0.66079399  0.02401911  0.71048262    -0.81500
O354        O  0.59191057  0.07902599  0.75694036    -0.80100
Zn355      Zn  0.60421799  0.21060580  0.71260672     1.55700
O356        O  0.67173943  0.04834727  0.66368170    -0.81500
Cd357      Cd  0.60297130  0.05717249  0.71372542     1.59700
Cd358      Cd  0.55083947  0.13630785  0.66410123     1.59600
O359        O  0.56088950  0.99079740  0.70049531    -0.81500
O360        O  0.59918491  0.13613810  0.68867879    -1.92000
Cd361      Cd  0.64343314  0.13330101  0.66108795     1.59900
O362        O  0.52135090  0.05009224  0.67145230    -0.81400
O363        O  0.68557320  0.19692497  0.67152129    -0.80100
C364        C  0.52960005  0.27041441  0.68549412     0.82500
C365        C  0.58932369  0.13217302  0.76925749     0.82100
O366        O  0.66091814  0.24678552  0.70940240    -0.79000
C367        C  0.68272761  0.02299307  0.68787952     0.82900
O368        O  0.56169613  0.27557327  0.70013847    -0.79100
C369        C  0.53002871  0.99729333  0.68449089     0.83100
C370        C  0.59524927  0.15133708  0.60557107     0.83400
O371        O  0.56279291  0.14250475  0.61905511    -0.81600
C372        C  0.64424361  0.14822128  0.98446039     0.85900
C373        C  0.66785891  0.08595632  0.98431949    -0.54300
C374        C  0.68666121  0.07521820  0.95856928     0.08800
C375        C  0.67806475  0.12631540  0.93471760     0.19800
C376        C  0.67459109  0.19919599  0.97426385    -0.55000
C377        C  0.69391945  0.18593084  0.94908836     0.09000
C378        C  0.61540158  0.14404883  0.95898102    -0.54600
C379        C  0.63263799  0.13308827  0.93281293     0.09500
H380        H  0.67816736  0.07162829  0.50543965     0.14000
H381        H  0.69212586  0.11739735  0.91346870    -0.00200
H382        H  0.68003777  0.25081140  0.48978128     0.14300
H383        H  0.58377808  0.14994838  0.96142694     0.14100
O384        O  0.94602667  0.32900497  0.00696720    -0.79100
C385        C  0.85703824  0.26116713  0.93913383     0.82000
O386        O  0.01236020  0.30142532  0.91849759    -0.80200
O387        O  0.89881654  0.40386617  0.87335556    -0.81700
O388        O  0.87046092  0.49254530  0.96324460    -0.81500
O389        O  0.94416365  0.43652741  0.50728392    -0.80100
Zn390      Zn  0.93447245  0.30571004  0.96469592     1.55700
O391        O  0.84380320  0.43088294  0.92984142    -0.81500
Cd392      Cd  0.92976892  0.46004278  0.96406944     1.59700
Cd393      Cd  0.98077822  0.38659719  0.91294296     1.59600
O394        O  0.97242060  0.52724501  0.94994142    -0.81500
O395        O  0.93526602  0.38255471  0.94023199    -1.92000
Cd396      Cd  0.88858314  0.37744207  0.91516419     1.59900
O397        O  0.01146078  0.47027653  0.92140854    -0.81400
O398        O  0.86661641  0.28806829  0.91507316    -0.80100
C399        C  0.00572778  0.24970322  0.93318276     0.82500
C400        C  0.95147042  0.38335539  0.52017097     0.82100
O401        O  0.87908228  0.26593171  0.96176034    -0.79000
C402        C  0.84056210  0.47343973  0.94860039     0.82900
O403        O  0.97684341  0.24431656  0.95095838    -0.79100
C404        C  0.00346283  0.52159344  0.93439170     0.83100
C405        C  0.92928290  0.40367752  0.85747239     0.83400
O406        O  0.96351177  0.39454956  0.86855756    -0.81600
C407        C  0.89185427  0.40275538  0.73343373     0.85900
C408        C  0.86645001  0.45977980  0.72349914    -0.54300
C409        C  0.84649789  0.45232704  0.69783472     0.08800
C410        C  0.85947752  0.39265461  0.68204338     0.19800
C411        C  0.86496454  0.34409578  0.73037964    -0.55000
C412        C  0.84640727  0.33999916  0.70389418     0.09000
C413        C  0.92198737  0.39708454  0.70918131    -0.54600
C414        C  0.90548989  0.39181357  0.68206097     0.09500
H415        H  0.85914953  0.49722225  0.73825143     0.14000
H416        H  0.84618551  0.38939063  0.66000445    -0.00200
H417        H  0.85771773  0.31298069  0.74894321     0.14300
H418        H  0.95365287  0.39729278  0.71266696     0.14100
C419        C  0.44764037  0.38606426  0.66059459     0.85900
C420        C  0.47426922  0.32763207  0.66057168    -0.54300
C421        C  0.50246885  0.32556854  0.68200731     0.08800
C422        C  0.50145230  0.38374378  0.70180559     0.19800
C423        C  0.43049053  0.38584948  0.69173374    -0.55000
C424        C  0.45878380  0.38480987  0.71333767     0.09000
C425        C  0.47569322  0.44319706  0.65942727    -0.54600
C426        C  0.50370784  0.44292105  0.68098448     0.09500
H427        H  0.47074011  0.29059932  0.64482338     0.14000
H428        H  0.52411980  0.38277265  0.71944184    -0.00200
H429        H  0.39910738  0.38680819  0.69627290     0.14300
H430        H  0.47277546  0.48160971  0.64320874     0.14100
C431        C  0.08735199  0.13571343  0.90915040     0.85900
C432        C  0.06074695  0.19449095  0.90817172    -0.54300
C433        C  0.03246912  0.19454516  0.92937878     0.08800
C434        C  0.03329649  0.13426158  0.94965988     0.19800
C435        C  0.10420159  0.13290165  0.94046421    -0.55000
C436        C  0.07586915  0.13222928  0.96165524     0.09000
C437        C  0.05913471  0.07875396  0.90813754    -0.54600
C438        C  0.03096302  0.07699056  0.92937719     0.09500
H439        H  0.06462815  0.23332995  0.89230515     0.14000
H440        H  0.01064688  0.13354963  0.96709402    -0.00200
H441        H  0.13556532  0.13228535  0.94544961     0.14300
H442        H  0.06209716  0.04185749  0.89232177     0.14100
O443        O  0.09222953  0.08348724  0.50797712    -0.79100
C444        C  0.19229035  0.03664073  0.56739268     0.82000
O445        O  0.02367974  0.04710894  0.59228516    -0.80200
O446        O  0.13567844  0.11371483  0.64167408    -0.81700
O447        O  0.16190842  0.24734692  0.55188737    -0.81500
O448        O  0.09147812  0.18940643  0.50658595    -0.80100
Zn449      Zn  0.10521874  0.05679188  0.55017695     1.55700
O450        O  0.17490045  0.22299748  0.59833749    -0.81500
Cd451      Cd  0.10425529  0.21090809  0.54957758     1.59700
Cd452      Cd  0.05512392  0.12988809  0.60063478     1.59600
O453        O  0.06228929  0.27497253  0.56375634    -0.81500
O454        O  0.10145579  0.13149056  0.57414789    -1.92000
Cd455      Cd  0.14758245  0.13683723  0.59981564     1.59900
O456        O  0.02494691  0.21595900  0.59446474    -0.81400
O457        O  0.18968228  0.07764147  0.58686388    -0.80100
C458        C  0.03213091  0.99579625  0.57950564     0.82500
C459        C  0.08784656  0.13649460  0.49415172     0.82100
O460        O  0.16263024  0.02211558  0.55139889    -0.79000
C461        C  0.18466299  0.24965208  0.57421514     0.82900
O462        O  0.06322405  0.99097245  0.56394781    -0.79100
C463        C  0.03257010  0.26842154  0.58066286     0.83100
C464        C  0.10459141  0.11212215  0.65687848     0.83400
O465        O  0.07068792  0.12098741  0.64524446    -0.81600
C466        C  0.14519637  0.11155883  0.77978298     0.85900
C467        C  0.17430013  0.16787811  0.78046922    -0.54300
C468        C  0.19271290  0.17555299  0.80680061     0.08800
C469        C  0.17857178  0.12730798  0.83047835     0.19800
C470        C  0.16893395  0.05397315  0.79157640    -0.55000
C471        C  0.18961829  0.06426107  0.81672424     0.09000
C472        C  0.11575395  0.12341905  0.80399026    -0.54600
C473        C  0.13268991  0.13083028  0.83079221     0.09500
H474        H  0.18253132  0.19494336  0.76084437     0.14000
H475        H  0.19233831  0.13315129  0.85223115    -0.00200
H476        H  0.17465920  0.01315795  0.77844626     0.14300
H477        H  0.08405895  0.12312872  0.80087046     0.14100
O478        O  0.37791841  0.27177768  0.80343297    -0.79100
C479        C  0.44956087  0.38538559  0.74485256     0.82000
O480        O  0.51900873  0.29819159  0.84141440    -0.80200
O481        O  0.47728393  0.52652366  0.81427536    -0.81700
O482        O  0.36651928  0.46568886  0.85190893    -0.81500
O483        O  0.35348310  0.31889846  0.84210649    -0.80100
Zn484      Zn  0.43510879  0.30688184  0.80143893     1.55700
O485        O  0.37706956  0.49160865  0.80521054    -0.81500
Cd486      Cd  0.39589790  0.38150103  0.85367347     1.59700
Cd487      Cd  0.48863000  0.38142556  0.85006746     1.59600
O488        O  0.41215273  0.36263675  0.89590889    -0.81500
O489        O  0.43996817  0.38085717  0.82574732    -1.92000
Cd490      Cd  0.43525796  0.45978487  0.80087753     1.59900
O491        O  0.47712089  0.37783829  0.89515470    -0.77000
O492        O  0.44583626  0.43841222  0.75720329    -0.80100
C493        C  0.50941770  0.24687016  0.82881576     0.82500
C494        C  0.34953923  0.28172169  0.82103117     0.82100
O495        O  0.44636008  0.33265498  0.75903646    -0.79000
C496        C  0.35516465  0.49153015  0.82789534     0.82900
O497        O  0.47734318  0.24185355  0.81413416    -0.79100
C498        C  0.44510133  0.36727211  0.90896183     0.83100
C499        C  0.50860766  0.52040400  0.82984537     0.83400
O500        O  0.51811713  0.46748547  0.84240920    -0.81600
C501        C  0.39604632  0.37666466  0.52823854     0.85900
C502        C  0.36683087  0.32270046  0.53674267    -0.54300
C503        C  0.34705213  0.33116479  0.56231597     0.08800
C504        C  0.36083675  0.39024826  0.57826062     0.19800
C505        C  0.37029723  0.43662162  0.52951911    -0.55000
C506        C  0.35101086  0.44314286  0.55547449     0.09000
C507        C  0.42425898  0.38034611  0.55413690    -0.54600
C508        C  0.40639201  0.38669983  0.58046252     0.09500
H509        H  0.35680506  0.28747572  0.52166674     0.14000
H510        H  0.34612161  0.39589195  0.59957171    -0.00200
H511        H  0.36381132  0.46633695  0.51028868     0.14300
H512        H  0.45604749  0.37706474  0.55182011     0.14100
C513        C  0.43005423  0.30563049  0.95422003    -0.13900
C514        C  0.44456973  0.36155656  0.94097794     0.08200
C515        C  0.44913515  0.41549951  0.95771080    -0.13900
C516        C  0.43572079  0.41504437  0.98661266    -0.13900
C517        C  0.41688998  0.36092921  0.99901606     0.08200
C518        C  0.41706913  0.30489970  0.98308643    -0.13900
H519        H  0.42667121  0.26339215  0.94164256     0.12200
H520        H  0.46006524  0.45938641  0.94773819     0.12200
H521        H  0.44035496  0.46683260  0.49853074     0.12200
H522        H  0.40607371  0.26045589  0.99215903     0.12200
C523        C  0.25920115  0.20745286  0.78605175    -0.13900
C524        C  0.23192486  0.20741436  0.80926644     0.08200
C525        C  0.24424281  0.23050070  0.83618028    -0.13900
C526        C  0.28267802  0.25284174  0.84000216    -0.13900
C527        C  0.31005682  0.25254817  0.81697125     0.08200
C528        C  0.29785419  0.22977178  0.78990796    -0.13900
H529        H  0.25120863  0.18832467  0.76520815     0.12200
H530        H  0.22412681  0.23108093  0.85449199     0.12200
H531        H  0.29095074  0.27048850  0.86110754     0.12200
H532        H  0.31805792  0.22971512  0.77163136     0.12200
C533        C  0.25429416  0.03839277  0.79302845    -0.13900
C534        C  0.23153330  0.04293618  0.81863444     0.08200
C535        C  0.25068902  0.03735894  0.84579342    -0.13900
C536        C  0.29127772  0.02581317  0.84739568    -0.13900
C537        C  0.31377191  0.02035500  0.82179220     0.08200
C538        C  0.29696448  0.52785195  0.79837288    -0.13900
H539        H  0.24113790  0.04527694  0.77158363     0.12200
H540        H  0.23424995  0.04212154  0.86582602     0.12200
H541        H  0.30495006  0.02019376  0.86874135     0.12200
H542        H  0.31438283  0.52638416  0.77864993     0.12200
C543        C  0.14652953  0.07907612  0.69884607    -0.13900
C544        C  0.10993694  0.10179937  0.68873566     0.08200
C545        C  0.08218717  0.12157868  0.70913123    -0.13900
C546        C  0.09199331  0.12200910  0.73904174    -0.13900
C547        C  0.12981836  0.10269896  0.74883143     0.08200
C548        C  0.15657524  0.08099469  0.72815271    -0.13900
H549        H  0.16858797  0.06302051  0.68382723     0.12200
H550        H  0.05388493  0.13997549  0.70185161     0.12200
H551        H  0.07079904  0.14090090  0.75384090     0.12200
H552        H  0.18631685  0.06767234  0.73444018     0.12200
C553        C  0.24991385  0.27920980  0.59632967    -0.13900
C554        C  0.22475491  0.27747022  0.57170843     0.08200
C555        C  0.24019462  0.29378591  0.54412348    -0.13900
C556        C  0.28004279  0.30923568  0.54106933    -0.13900
C557        C  0.30550256  0.30908107  0.56552284     0.08200
C558        C  0.28981367  0.29534452  0.59327452    -0.13900
H559        H  0.23898959  0.26662931  0.61795726     0.12200
H560        H  0.22177770  0.29282372  0.52474836     0.12200
H561        H  0.29072621  0.32243810  0.51945203     0.12200
H562        H  0.30851102  0.29639287  0.61250627     0.12200
C563        C  0.24254633  0.97965320  0.53770042    -0.13900
C564        C  0.23169963  0.00822065  0.56365761     0.08200
C565        C  0.26297996  0.52526846  0.58675488    -0.13900
C566        C  0.30143696  0.50372133  0.58313650    -0.13900
C567        C  0.31252838  0.47627853  0.55702890     0.08200
C568        C  0.28425316  0.47111643  0.53448963    -0.13900
H569        H  0.22134877  0.97443443  0.52013212     0.12200
H570        H  0.25552105  0.54630362  0.60729602     0.12200
H571        H  0.32238491  0.50740656  0.60095341     0.12200
H572        H  0.28853028  0.93469640  0.51424800     0.12200
C573        C  0.11812530  0.13566167  0.88496129    -0.17000
C574        C  0.10665429  0.13781357  0.85668988    -0.32200
H575        H  0.14907696  0.13144357  0.89073638     0.12000
H576        H  0.07521783  0.14162239  0.85218922     0.12600
C577        C  0.41792620  0.38732190  0.63540617    -0.17000
C578        C  0.43104116  0.38812166  0.60757373    -0.32200
H579        H  0.38661674  0.38678176  0.64004578     0.12000
H580        H  0.46278961  0.38813423  0.60435455     0.12600
C581        C  0.87532060  0.41571581  0.78574999    -0.13900
C582        C  0.90518391  0.40870631  0.76502853     0.08200
C583        C  0.94468140  0.40527953  0.77489035    -0.13900
C584        C  0.95335968  0.40611154  0.80502269    -0.13900
C585        C  0.92285103  0.41099153  0.82549182     0.08200
C586        C  0.88389493  0.41751779  0.81526731    -0.13900
H587        H  0.84459747  0.41828157  0.77905237     0.12200
H588        H  0.96864712  0.40006444  0.75986693     0.12200
H589        H  0.98370655  0.40108730  0.81229507     0.12200
H590        H  0.85947242  0.42166360  0.83011413     0.12200
C591        C  0.75222608  0.04503863  0.98094456    -0.13900
C592        C  0.72464700  0.04059926  0.95787172     0.08200
C593        C  0.73644914  0.01360418  0.93183560    -0.13900
C594        C  0.77096998  0.48968455  0.93168845    -0.13900
C595        C  0.80042015  0.49923298  0.95302482     0.08200
C596        C  0.79108896  0.02434772  0.97765233    -0.13900
H597        H  0.74440286  0.06739477  0.00104142     0.12200
H598        H  0.71607150  0.01031653  0.91363181     0.12200
H599        H  0.77765320  0.46571621  0.91177393     0.12200
H600        H  0.81178187  0.02862956  0.99559445     0.12200
C601        C  0.76091062  0.20411769  0.97109224    -0.13900
C602        C  0.73632617  0.20321808  0.94612415     0.08200
C603        C  0.75331646  0.21259764  0.91852907    -0.13900
C604        C  0.79349106  0.22707521  0.91603692    -0.13900
C605        C  0.81752617  0.23152225  0.94119324     0.08200
C606        C  0.80097390  0.21799950  0.96863361    -0.13900
H607        H  0.74922695  0.19379644  0.99269108     0.12200
H608        H  0.73527889  0.21027698  0.89889844     0.12200
H609        H  0.80540722  0.23714943  0.89450679     0.12200
H610        H  0.81860427  0.22088881  0.98840492     0.12200
C611        C  0.62686814  0.21680873  0.53267162    -0.13900
C612        C  0.62294734  0.16322898  0.51523960     0.08200
C613        C  0.60137762  0.11084888  0.52668860    -0.13900
C614        C  0.58836264  0.10917231  0.55569500    -0.13900
C615        C  0.59638100  0.16008571  0.57366522     0.08200
C616        C  0.61436871  0.21467650  0.56167742    -0.13900
H617        H  0.64090815  0.25998084  0.52487339     0.12200
H618        H  0.59700466  0.06937345  0.51373835     0.12200
H619        H  0.57493015  0.06622117  0.56470541     0.12200
H620        H  0.62070704  0.25449706  0.57530510     0.12200
C621        C  0.74487291  0.49308262  0.66759475    -0.13900
C622        C  0.72350315  0.99903783  0.69012586     0.08200
C623        C  0.74230177  0.99510698  0.71743985    -0.13900
C624        C  0.78277640  0.98470663  0.71938327    -0.13900
C625        C  0.80420440  0.47185398  0.69620760     0.08200
C626        C  0.78542201  0.48128250  0.66908528    -0.13900
H627        H  0.73152869  0.50199533  0.64626940     0.12200
H628        H  0.72597116  0.00206877  0.73732326     0.12200
H629        H  0.79577720  0.98048828  0.74101016     0.12200
H630        H  0.80216475  0.47974357  0.64904465     0.12200
C631        C  0.75319843  0.27283892  0.67053265    -0.13900
C632        C  0.72801795  0.26715015  0.69482934     0.08200
C633        C  0.74233775  0.28361413  0.72231120    -0.13900
C634        C  0.78124065  0.30464904  0.72554131    -0.13900
C635        C  0.80672314  0.30978303  0.70125894     0.08200
C636        C  0.79203282  0.29396369  0.67372263    -0.13900
H637        H  0.74296243  0.26016975  0.64905134     0.12200
H638        H  0.72374098  0.27890021  0.74144262     0.12200
H639        H  0.79075870  0.31857100  0.74696888     0.12200
H640        H  0.81056983  0.29767107  0.65455367     0.12200
C641        C  0.62077128  0.12902376  0.87827563    -0.17000
C642        C  0.60772603  0.12948093  0.90604784    -0.32200
H643        H  0.65208968  0.12952981  0.87353815     0.12000
H644        H  0.57596943  0.12986829  0.90940611     0.12600
C645        C  0.91999575  0.38237594  0.62822938    -0.17000
C646        C  0.93169807  0.38546801  0.65631392    -0.32200
H647        H  0.88885197  0.38291456  0.62250351     0.12000
H648        H  0.96332003  0.38502735  0.66076531     0.12600
C649        C  0.94964274  0.87703940  0.10368208     0.85900
C650        C  0.97705647  0.93491477  0.10424958    -0.54300
C651        C  0.00539061  0.93672402  0.08319719     0.08800
C652        C  0.00380775  0.87862238  0.06334089     0.19800
C653        C  0.93280416  0.87797588  0.07242677    -0.55000
C654        C  0.96118787  0.87870158  0.05129852     0.09000
C655        C  0.97687518  0.81918690  0.10527615    -0.54600
C656        C  0.00519278  0.81918445  0.08415508     0.09500
H657        H  0.97359052  0.97219904  0.11981508     0.14000
H658        H  0.02652906  0.87938878  0.04595871    -0.00200
H659        H  0.90144060  0.87819308  0.06742263     0.14300
H660        H  0.97331704  0.78080562  0.12142487     0.14100
C661        C  0.58875584  0.63664100  0.35208830     0.85900
C662        C  0.56176248  0.57819922  0.35294571    -0.54300
C663        C  0.53373836  0.57770611  0.33135906     0.08800
C664        C  0.53501505  0.63742966  0.31084324     0.19800
C665        C  0.60598534  0.63844471  0.32105183    -0.55000
C666        C  0.57778899  0.63861541  0.29946487     0.09000
C667        C  0.56109194  0.69368281  0.35242130    -0.54600
C668        C  0.53296235  0.69504398  0.33093504     0.09500
H669        H  0.56527153  0.53967746  0.36904199     0.14000
H670        H  0.51243610  0.63772128  0.29314768    -0.00200
H671        H  0.63739593  0.63856197  0.31654536     0.14300
H672        H  0.56408708  0.73059206  0.36828466     0.14100
O673        O  0.59167722  0.68912542  0.25372095    -0.79100
C674        C  0.68800224  0.73702196  0.19095244     0.82000
O675        O  0.51881676  0.71962704  0.17199287    -0.80200
O676        O  0.62636962  0.65324749  0.11871252    -0.81700
O677        O  0.66088622  0.52687715  0.21043382    -0.81500
O678        O  0.59069056  0.58325459  0.25637480    -0.80100
Zn679      Zn  0.60314015  0.71259262  0.21122159     1.55700
O680        O  0.67155349  0.54932953  0.16344794    -0.81500
Cd681      Cd  0.60239942  0.55898022  0.21347542     1.59700
Cd682      Cd  0.54951456  0.63667396  0.16391595     1.59600
O683        O  0.56021295  0.49192467  0.20035075    -0.81500
O684        O  0.59818162  0.63709139  0.18811841    -1.92000
Cd685      Cd  0.64235868  0.63369025  0.16063728     1.59900
O686        O  0.52015073  0.55064371  0.17145037    -0.81400
O687        O  0.68441142  0.69714928  0.17099395    -0.80100
C688        C  0.52917763  0.77178520  0.18347043     0.82500
C689        C  0.58742023  0.63692803  0.26817887     0.82100
O690        O  0.65972374  0.74843092  0.20837909    -0.79000
C691        C  0.68290671  0.52528438  0.18784709     0.82900
O692        O  0.56154321  0.77725097  0.19768333    -0.79100
C693        C  0.52913758  0.49799915  0.18447091     0.83100
C694        C  0.59337714  0.65209776  0.10557531     0.83400
O695        O  0.56108088  0.64234552  0.11908092    -0.81600
C696        C  0.64316206  0.64993670  0.48346106     0.85900
C697        C  0.66906258  0.59038935  0.48167358    -0.54300
C698        C  0.68780760  0.58418930  0.45559803     0.08800
C699        C  0.67698418  0.63665377  0.43301084     0.19800
C700        C  0.67042196  0.70546070  0.47391052    -0.55000
C701        C  0.69067186  0.69638148  0.44866474     0.09000
C702        C  0.61381819  0.64499820  0.45824635    -0.54600
C703        C  0.63116014  0.63865738  0.43162408     0.09500
H704        H  0.67151156  0.56186284  0.00651140     0.14000
H705        H  0.69115552  0.63103744  0.41150752    -0.00200
H706        H  0.68300242  0.74029844  0.99132998     0.14300
H707        H  0.58211494  0.64779837  0.46071028     0.14100
O708        O  0.94709982  0.83260405  0.50722793    -0.79100
C709        C  0.85480820  0.77114244  0.44060890     0.82000
O710        O  0.01410125  0.80413136  0.41999386    -0.80200
O711        O  0.90239364  0.90288447  0.37268704    -0.81700
O712        O  0.87489640  0.00027970  0.46292732    -0.81500
O713        O  0.94554203  0.93373624  0.00693539    -0.80100
Zn714      Zn  0.93475725  0.80966568  0.46498347     1.55700
O715        O  0.84843360  0.94431466  0.42739169    -0.81500
Cd716      Cd  0.93286038  0.96379469  0.46436984     1.59700
Cd717      Cd  0.98319469  0.88933573  0.41319904     1.59600
O718        O  0.97562807  0.02986738  0.45051016    -0.81500
O719        O  0.93725011  0.88639948  0.44030312    -1.92000
Cd720      Cd  0.89082657  0.88389739  0.41489191     1.59900
O721        O  0.01395100  0.97352343  0.42123594    -0.81400
O722        O  0.86434925  0.79790101  0.41652039    -0.80100
C723        C  0.00646890  0.75219717  0.43423001     0.82500
C724        C  0.95151660  0.88022537  0.01989653     0.82100
O725        O  0.87785249  0.77330154  0.46283027    -0.79000
C726        C  0.84551455  0.98561908  0.44675350     0.82900
O727        O  0.97670881  0.74677558  0.45126501    -0.79100
C728        C  0.00620167  0.02457310  0.43454106     0.83100
C729        C  0.93291471  0.90172474  0.35694115     0.83400
O730        O  0.96711324  0.89422035  0.36833557    -0.81600
C731        C  0.89261019  0.89779534  0.23324643     0.85900
C732        C  0.86835786  0.95606634  0.22297465    -0.54300
C733        C  0.84857727  0.94919266  0.19716783     0.08800
C734        C  0.85972404  0.88803872  0.18195422     0.19800
C735        C  0.86410759  0.84109676  0.23078236    -0.55000
C736        C  0.84566678  0.83705370  0.20427507     0.09000
C737        C  0.92235115  0.88941505  0.20887865    -0.54600
C738        C  0.90551578  0.88458321  0.18185415     0.09500
H739        H  0.86151502  0.99418754  0.23747498     0.14000
H740        H  0.84594115  0.88468609  0.16005328    -0.00200
H741        H  0.85573944  0.81152345  0.24962134     0.14300
H742        H  0.95400671  0.88855185  0.21215262     0.14100
C743        C  0.44843409  0.88888554  0.15826543     0.85900
C744        C  0.47471953  0.83007951  0.15805121    -0.54300
C745        C  0.50278854  0.82744406  0.17955417     0.08800
C746        C  0.50216652  0.88528036  0.19948627     0.19800
C747        C  0.43128446  0.88847613  0.18931354    -0.55000
C748        C  0.45951703  0.88673774  0.21086415     0.09000
C749        C  0.47684557  0.94566198  0.15725787    -0.54600
C750        C  0.50484908  0.94461337  0.17891621     0.09500
H751        H  0.47092918  0.79309330  0.14230727     0.14000
H752        H  0.52473027  0.88374174  0.21719610    -0.00200
H753        H  0.39991798  0.89006716  0.19385704     0.14300
H754        H  0.47411316  0.98440676  0.14119042     0.14100
C755        C  0.08845357  0.63852951  0.41058730     0.85900
C756        C  0.06127992  0.69657653  0.40926461    -0.54300
C757        C  0.03326267  0.69698980  0.43067756     0.08800
C758        C  0.03482449  0.63758114  0.45147547     0.19800
C759        C  0.10572090  0.63758602  0.44181868    -0.55000
C760        C  0.07760683  0.63714380  0.46322490     0.09000
C761        C  0.06080213  0.58089888  0.41035742    -0.54600
C762        C  0.03273794  0.57945131  0.43165158     0.09500
H763        H  0.06463959  0.73481890  0.39301306     0.14000
H764        H  0.01232497  0.63708634  0.46901654    -0.00200
H765        H  0.13709309  0.63764837  0.44657435     0.14300
H766        H  0.06378281  0.54359242  0.39473144     0.14100
O767        O  0.09119157  0.57877024  0.00791666    -0.79100
C768        C  0.19151602  0.53105966  0.06753031     0.82000
O769        O  0.02286847  0.54306425  0.09237273    -0.80200
O770        O  0.13466892  0.60717512  0.14229327    -0.81700
O771        O  0.16129665  0.74055786  0.05220267    -0.81500
O772        O  0.09000600  0.68459033  0.00668613    -0.80100
Zn773      Zn  0.10440595  0.55216867  0.05017486     1.55700
O774        O  0.17325867  0.71739937  0.09895460    -0.81500
Cd775      Cd  0.10333008  0.70569890  0.04973134     1.59700
Cd776      Cd  0.05435762  0.62557210  0.10107265     1.59600
O777        O  0.06176743  0.77060082  0.06379332    -0.81500
O778        O  0.10053155  0.62641545  0.07445041    -1.92000
Cd779      Cd  0.14658482  0.63072029  0.10032775     1.59900
O780        O  0.02440276  0.71197108  0.09462466    -0.81400
O781        O  0.18889466  0.57159375  0.08723483    -0.80100
C782        C  0.03115858  0.49192552  0.07937393     0.82500
C783        C  0.08640920  0.63177073  0.99416202     0.82100
O784        O  0.16188516  0.51716874  0.05136726    -0.79000
C785        C  0.18366918  0.74296296  0.07474611     0.82900
O786        O  0.06224437  0.48694302  0.06383382    -0.79100
C787        C  0.03202349  0.76430005  0.08068082     0.83100
C788        C  0.10360196  0.60649772  0.15754536     0.83400
O789        O  0.06981177  0.61638857  0.14585598    -0.81600
C790        C  0.14376606  0.60814990  0.28056881     0.85900
C791        C  0.17162117  0.66598689  0.28017719    -0.54300
C792        C  0.19047014  0.67619674  0.30605282     0.08800
C793        C  0.17800768  0.62876277  0.33059899     0.19800
C794        C  0.16898999  0.55264159  0.29270760    -0.55000
C795        C  0.18966999  0.56526800  0.31757529     0.09000
C796        C  0.11462040  0.61990907  0.30508159    -0.54600
C797        C  0.13208643  0.62992685  0.33157755     0.09500
H798        H  0.17897476  0.69230428  0.26012736     0.14000
H799        H  0.19245526  0.63684175  0.35196262    -0.00200
H800        H  0.17555044  0.51151163  0.27996892     0.14300
H801        H  0.08291203  0.61793748  0.30234419     0.14100
O802        O  0.37464256  0.77623988  0.30043161    -0.79100
C803        C  0.45006671  0.88804919  0.24215883     0.82000
O804        O  0.51455492  0.80079396  0.34048645    -0.80200
O805        O  0.47853338  0.02849073  0.31187838    -0.81700
O806        O  0.36895734  0.98052357  0.34624027    -0.81500
O807        O  0.34811395  0.83437468  0.33482142    -0.80100
Zn808      Zn  0.43229800  0.81059591  0.29854934     1.55700
O809        O  0.37762524  0.99873258  0.29894738    -0.81500
Cd810      Cd  0.39219631  0.89209133  0.34769051     1.59700
Cd811      Cd  0.48409649  0.88343923  0.34939589     1.59600
O812        O  0.40397340  0.86975887  0.38972236    -0.81500
O813        O  0.43793142  0.88536929  0.32227767    -1.92000
Cd814      Cd  0.43582305  0.96436936  0.29720528     1.59900
O815        O  0.46894292  0.87487698  0.39425469    -0.77000
O816        O  0.44829435  0.94145117  0.25434857    -0.80100
C817        C  0.50563912  0.74985207  0.32735344     0.82500
C818        C  0.34513973  0.79182579  0.31599856     0.82100
O819        O  0.44433014  0.83571685  0.25622398    -0.79000
C820        C  0.35646270  0.00244203  0.32185427     0.82900
O821        O  0.47417961  0.74507395  0.31190058    -0.79100
C822        C  0.43478768  0.86750832  0.40549011     0.83100
C823        C  0.50806672  0.02159630  0.32925351     0.83400
O824        O  0.51496603  0.96912437  0.34322540    -0.81600
C825        C  0.39307918  0.86187798  0.02830215     0.85900
C826        C  0.36772599  0.80620956  0.04054517    -0.54300
C827        C  0.34732417  0.81915392  0.06533101     0.08800
C828        C  0.35935254  0.88292556  0.07807405     0.19800
C829        C  0.36513542  0.91924477  0.02745980    -0.55000
C830        C  0.34679870  0.92974087  0.05337065     0.09000
C831        C  0.42230360  0.87401998  0.05295433    -0.54600
C832        C  0.40512524  0.88430450  0.07921454     0.09500
H833        H  0.36176144  0.76364472  0.02862554     0.14000
H834        H  0.34524331  0.89155257  0.09933601    -0.00200
H835        H  0.35727897  0.94467219  0.00726123     0.14300
H836        H  0.45403963  0.87166765  0.05036419     0.14100
C837        C  0.39042449  0.84196175  0.44688947    -0.13900
C838        C  0.42857821  0.85804091  0.43740723     0.08200
C839        C  0.45767029  0.87075876  0.45851519    -0.13900
C840        C  0.44784847  0.87039036  0.48842859    -0.13900
C841        C  0.40875104  0.85769001  0.49750898     0.08200
C842        C  0.38057258  0.84293617  0.47614395    -0.13900
H843        H  0.36709493  0.83129037  0.43145610     0.12200
H844        H  0.48725936  0.88364686  0.45186305     0.12200
H845        H  0.46213607  0.91160701  0.00334692     0.12200
H846        H  0.35010174  0.83438710  0.48197714     0.12200
C847        C  0.25643647  0.70646634  0.28428697    -0.13900
C848        C  0.22893445  0.71035556  0.30722260     0.08200
C849        C  0.24025822  0.74050020  0.33270605    -0.13900
C850        C  0.27804337  0.76627324  0.33538651    -0.13900
C851        C  0.30582021  0.76165245  0.31274202     0.08200
C852        C  0.29457832  0.73157701  0.28712338    -0.13900
H853        H  0.24900708  0.68206394  0.26459845     0.12200
H854        H  0.21986237  0.74381373  0.35076993     0.12200
H855        H  0.28565862  0.78930708  0.35541499     0.12200
H856        H  0.31515727  0.72777504  0.26921634     0.12200
C857        C  0.25516708  0.54386571  0.29449950    -0.13900
C858        C  0.23148485  0.54431546  0.31975536     0.08200
C859        C  0.24920406  0.53244554  0.34704454    -0.13900
C860        C  0.28933026  0.51760920  0.34898749    -0.13900
C861        C  0.31277104  0.51555818  0.32366514     0.08200
C862        C  0.29481072  0.02467795  0.29340603    -0.13900
H863        H  0.24280519  0.55548940  0.27313506     0.12200
H864        H  0.23190094  0.53412986  0.36682530     0.12200
H865        H  0.30186258  0.50661001  0.37036546     0.12200
H866        H  0.31011697  0.01502998  0.27331591     0.12200
C867        C  0.14562783  0.57444449  0.19975662    -0.13900
C868        C  0.10885542  0.59611021  0.18950424     0.08200
C869        C  0.08065119  0.61446229  0.20991711    -0.13900
C870        C  0.09023717  0.61489170  0.23990605    -0.13900
C871        C  0.12826359  0.59702579  0.24979341     0.08200
C872        C  0.15540308  0.57623304  0.22913336    -0.13900
H873        H  0.16809595  0.55940640  0.18478771     0.12200
H874        H  0.05212753  0.63182460  0.20259345     0.12200
H875        H  0.06871082  0.63288737  0.25474192     0.12200
H876        H  0.18530454  0.56409224  0.23545191     0.12200
C877        C  0.24701497  0.77908929  0.09767643    -0.13900
C878        C  0.22411468  0.76912933  0.07243063     0.08200
C879        C  0.24215915  0.77493663  0.04501503    -0.13900
C880        C  0.28231614  0.78861674  0.04290393    -0.13900
C881        C  0.30560478  0.79715771  0.06813028     0.08200
C882        C  0.28727712  0.79354879  0.09553118    -0.13900
H883        H  0.23392238  0.77456544  0.11921163     0.12200
H884        H  0.22553136  0.76700723  0.02521420     0.12200
H885        H  0.29487380  0.79390777  0.02122380     0.12200
H886        H  0.30413782  0.80144716  0.11523118     0.12200
C887        C  0.24277405  0.47815744  0.03700971    -0.13900
C888        C  0.23094129  0.50256505  0.06370485     0.08200
C889        C  0.26047333  0.01682230  0.08414031    -0.13900
C890        C  0.29853890  0.99398479  0.08034144    -0.13900
C891        C  0.30838499  0.96291231  0.05488760     0.08200
C892        C  0.27923531  0.95529064  0.03315080    -0.13900
H893        H  0.22216733  0.47558031  0.01892924     0.12200
H894        H  0.25404308  0.04065199  0.10417294     0.12200
H895        H  0.32021892  0.99980224  0.09753378     0.12200
H896        H  0.28976243  0.43738120  0.01286363     0.12200
C897        C  0.11877766  0.63797117  0.38598304    -0.17000
C898        C  0.10657381  0.63753929  0.35780624    -0.32200
H899        H  0.14979858  0.63537075  0.39136746     0.12000
H900        H  0.07509674  0.63965682  0.35371785     0.12600
C901        C  0.41825862  0.89022044  0.13350092    -0.17000
C902        C  0.43062673  0.89098664  0.10555858    -0.32200
H903        H  0.38712863  0.88798692  0.13858427     0.12000
H904        H  0.46222128  0.89281076  0.10179252     0.12600
C905        C  0.87822730  0.91623473  0.28554211    -0.13900
C906        C  0.90695476  0.90354268  0.26464913     0.08200
C907        C  0.94622213  0.89371453  0.27426820    -0.13900
C908        C  0.95573150  0.89514014  0.30427339    -0.13900
C909        C  0.92631418  0.90698354  0.32488679     0.08200
C910        C  0.88772392  0.91895206  0.31487214    -0.13900
H911        H  0.84762677  0.92302308  0.27914845     0.12200
H912        H  0.96928458  0.88284955  0.25917335     0.12200
H913        H  0.98570131  0.88519347  0.31137195     0.12200
H914        H  0.86407614  0.92846170  0.32984615     0.12200
C915        C  0.75434075  0.55680416  0.47675990    -0.13900
C916        C  0.72641758  0.55158624  0.45399979     0.08200
C917        C  0.73758785  0.52277097  0.42823511    -0.13900
C918        C  0.77666340  0.00519893  0.42913733    -0.13900
C919        C  0.80608267  0.01417657  0.45053691     0.08200
C920        C  0.79268543  0.53391827  0.47373444    -0.13900
H921        H  0.74696713  0.58066226  0.49658427     0.12200
H922        H  0.71690031  0.51919474  0.41022225     0.12200
H923        H  0.78319136  0.98106849  0.40922302     0.12200
H924        H  0.81353029  0.53866913  0.49157050     0.12200
C925        C  0.75664272  0.71939690  0.47199764    -0.13900
C926        C  0.73280283  0.71675351  0.44665514     0.08200
C927        C  0.75069531  0.72538359  0.41930647    -0.13900
C928        C  0.79101505  0.73909534  0.41739663    -0.13900
C929        C  0.81451810  0.74392648  0.44276788     0.08200
C930        C  0.79698414  0.73275197  0.47011296    -0.13900
H931        H  0.74432154  0.71003829  0.49354267     0.12200
H932        H  0.73344439  0.72218589  0.39947071     0.12200
H933        H  0.80358533  0.74765579  0.39589461     0.12200
H934        H  0.81405049  0.73642486  0.48997401     0.12200
C935        C  0.62724824  0.71410678  0.03301322    -0.13900
C936        C  0.62104179  0.66086497  0.01570817     0.08200
C937        C  0.59658949  0.61166404  0.02686470    -0.13900
C938        C  0.58333017  0.61171634  0.05575753    -0.13900
C939        C  0.59418401  0.66120230  0.07378561     0.08200
C940        C  0.61457468  0.71356745  0.06190058    -0.13900
H941        H  0.64319466  0.75543829  0.02528024     0.12200
H942        H  0.59020918  0.57088208  0.01385139     0.12200
H943        H  0.56773646  0.57069222  0.06468870     0.12200
H944        H  0.62280701  0.75251701  0.07556821     0.12200
C945        C  0.75094569  0.00483749  0.16490972    -0.13900
C946        C  0.72391416  0.50141383  0.19021910     0.08200
C947        C  0.74196970  0.49361371  0.21772906    -0.13900
C948        C  0.78227383  0.48107930  0.22002992    -0.13900
C949        C  0.80719401  0.97215618  0.19470437     0.08200
C950        C  0.79096851  0.98946412  0.16744960    -0.13900
H951        H  0.73962594  0.01998273  0.14370655     0.12200
H952        H  0.72516138  0.49867663  0.23752069     0.12200
H953        H  0.79471755  0.47379810  0.24173994     0.12200
H954        H  0.80932517  0.99134926  0.14811799     0.12200
C955        C  0.75395670  0.76649305  0.17080846    -0.13900
C956        C  0.72711289  0.76711936  0.19417532     0.08200
C957        C  0.73980861  0.78945203  0.22113558    -0.13900
C958        C  0.77882340  0.80945716  0.22486094    -0.13900
C959        C  0.80582099  0.80814885  0.20153635     0.08200
C960        C  0.79278334  0.78702116  0.17445422    -0.13900
H961        H  0.74503916  0.74940661  0.14973233     0.12200
H962        H  0.71987593  0.78999569  0.23956154     0.12200
H963        H  0.78743444  0.82758912  0.24578026     0.12200
H964        H  0.81269865  0.78618335  0.15602198     0.12200
C965        C  0.61865516  0.63651447  0.37704212    -0.17000
C966        C  0.60593244  0.63535323  0.40493258    -0.32200
H967        H  0.64985856  0.63873049  0.37214625     0.12000
H968        H  0.57426858  0.63376886  0.40848426     0.12600
C969        C  0.91920931  0.87729449  0.12788418    -0.17000
C970        C  0.93129370  0.87819861  0.15595517    -0.32200
H971        H  0.88812916  0.87907022  0.12225701     0.12000
H972        H  0.96286444  0.87643569  0.16023686     0.12600
C973        C  0.94875710  0.88217862  0.60459080     0.85900
C974        C  0.97662540  0.93961381  0.60482862    -0.54300
C975        C  0.00469941  0.94071031  0.58352966     0.08800
C976        C  0.00244724  0.88246766  0.56387590     0.19800
C977        C  0.93158240  0.88308292  0.57336382    -0.55000
C978        C  0.95976116  0.88290491  0.55205887     0.09000
C979        C  0.97565332  0.82387229  0.60611305    -0.54600
C980        C  0.00373942  0.82338334  0.58482458     0.09500
H981        H  0.97369924  0.97705827  0.62037660     0.14000
H982        H  0.02498486  0.88270298  0.54636636    -0.00200
H983        H  0.90019143  0.88394302  0.56852293     0.14300
H984        H  0.97218269  0.78573131  0.62239497     0.14100
C985        C  0.58968315  0.63546738  0.85492454     0.85900
C986        C  0.56288018  0.57666095  0.85558226    -0.54300
C987        C  0.53492098  0.57615840  0.83393733     0.08800
C988        C  0.53604516  0.63608496  0.81356916     0.19800
C989        C  0.60694506  0.63787789  0.82383009    -0.55000
C990        C  0.57876084  0.63806310  0.80218048     0.09000
C991        C  0.56170806  0.69223154  0.85529836    -0.54600
C992        C  0.53369908  0.69344780  0.83371507     0.09500
H993        H  0.56642976  0.53797748  0.87160272     0.14000
H994        H  0.51350257  0.63632667  0.79585091    -0.00200
H995        H  0.63837312  0.63824306  0.81934586     0.14300
H996        H  0.56450292  0.72920094  0.87116825     0.14100
O997        O  0.59377269  0.68800169  0.75625021    -0.79100
C998        C  0.69070541  0.73069894  0.69403809     0.82000
O999        O  0.52124141  0.71870666  0.67149180    -0.80200
O1000       O  0.63220272  0.64532482  0.62240814    -0.81700
O1001       O  0.66018781  0.52363583  0.71473422    -0.81500
O1002       O  0.58954386  0.58238474  0.75889058    -0.80100
Zn1003     Zn  0.60420264  0.71113112  0.71315097     1.55700
O1004       O  0.66789379  0.53875335  0.66721350    -0.81500
Cd1005     Cd  0.60197671  0.55797906  0.71623219     1.59700
Cd1006     Cd  0.55258029  0.63627734  0.66304761     1.59600
O1007       O  0.56006024  0.49228731  0.70232940    -0.81500
O1008       O  0.59888232  0.63549749  0.69012641    -1.92000
Cd1009     Cd  0.64437785  0.62684043  0.66461116     1.59900
O1010       O  0.52330167  0.54960996  0.67032215    -0.81400
O1011       O  0.68828180  0.68638817  0.67604562    -0.80100
C1012       C  0.53011806  0.76995372  0.68441419     0.82500
C1013       C  0.58814554  0.63613144  0.77078151     0.82100
O1014       O  0.66108772  0.74667008  0.70938614    -0.79000
C1015       C  0.68086684  0.51824535  0.69169384     0.82900
O1016       O  0.56164159  0.77513566  0.69973221    -0.79100
C1017       C  0.53063602  0.49787556  0.68480909     0.83100
C1018       C  0.60148381  0.64860923  0.60660108     0.83400
O1019       O  0.56722560  0.64365964  0.61791504    -0.81600
C1020       C  0.64201454  0.65229174  0.98668490     0.85900
C1021       C  0.66592096  0.59021607  0.98670117    -0.54300
C1022       C  0.68507878  0.57982312  0.96107055     0.08800
C1023       C  0.67700461  0.63142995  0.93732146     0.19800
C1024       C  0.67263554  0.70343954  0.97733544    -0.55000
C1025       C  0.69262718  0.69077225  0.95232016     0.09000
C1026       C  0.61383318  0.64855356  0.96082557    -0.54600
C1027       C  0.63153791  0.63820664  0.93482314     0.09500
H1028       H  0.67597881  0.56040871  0.50073912     0.14000
H1029       H  0.69147389  0.62246808  0.91621305    -0.00200
H1030       H  0.67803598  0.74338149  0.48840808     0.14300
H1031       H  0.58211600  0.65413650  0.96294768     0.14100
O1032       O  0.94900922  0.82807266  0.00665839    -0.79100
C1033       C  0.85703281  0.76114674  0.94147747     0.82000
O1034       O  0.01331382  0.80004939  0.91863056    -0.80200
O1035       O  0.89964027  0.89969583  0.87285429    -0.81700
O1036       O  0.87232820  0.99060427  0.96278557    -0.81500
O1037       O  0.94546233  0.93838197  0.50760916    -0.80100
Zn1038     Zn  0.93568633  0.80480732  0.96490448     1.55700
O1039       O  0.84612275  0.92890851  0.92914113    -0.81500
Cd1040     Cd  0.93139245  0.95845559  0.96377855     1.59700
Cd1041     Cd  0.98206859  0.88558335  0.91286197     1.59600
O1042       O  0.97288036  0.02656802  0.94904269    -0.81500
O1043       O  0.93660296  0.88096056  0.94003697    -1.92000
Cd1044     Cd  0.88997838  0.87371026  0.91497605     1.59900
O1045       O  0.01254164  0.96996296  0.92088052    -0.81400
O1046       O  0.86706602  0.78466045  0.91678515    -0.80100
C1047       C  0.00634497  0.74835076  0.93329201     0.82500
C1048       C  0.95014892  0.88461149  0.52059996     0.82100
O1049       O  0.87953444  0.76697751  0.96376925    -0.79000
C1050       C  0.84279819  0.97176924  0.94771438     0.82900
O1051       O  0.97721742  0.74295452  0.95083769    -0.79100
C1052       C  0.00385432  0.02155431  0.93341176     0.83100
C1053       C  0.93046275  0.90334940  0.85735879     0.83400
O1054       O  0.96468313  0.89517754  0.86861366    -0.81600
C1055       C  0.89159528  0.90998246  0.73402153     0.85900
C1056       C  0.86771936  0.96702531  0.72193257    -0.54300
C1057       C  0.84743098  0.95606023  0.69662340     0.08800
C1058       C  0.85882033  0.89280377  0.68319073     0.19800
C1059       C  0.86278803  0.85334516  0.73332556    -0.55000
C1060       C  0.84501253  0.84484112  0.70690347     0.09000
C1061       C  0.92137138  0.89815849  0.70992600    -0.54600
C1062       C  0.90460946  0.89002531  0.68307442     0.09500
H1063       H  0.86172936  0.00789109  0.73497580     0.14000
H1064       H  0.84500262  0.88549693  0.66155329    -0.00200
H1065       H  0.85390192  0.82683748  0.75295620     0.14300
H1066       H  0.95302682  0.89884506  0.71311919     0.14100
C1067       C  0.44771921  0.88473510  0.65961936     0.85900
C1068       C  0.47483232  0.82692063  0.65930746    -0.54300
C1069       C  0.50287549  0.82486910  0.68083922     0.08800
C1070       C  0.50128602  0.88244673  0.70095158     0.19800
C1071       C  0.43037319  0.88323547  0.69065041    -0.55000
C1072       C  0.45852570  0.88214272  0.71229502     0.09000
C1073       C  0.47525322  0.94255555  0.65886135    -0.54600
C1074       C  0.50320502  0.94221577  0.68048908     0.09500
H1075       H  0.47161517  0.79013976  0.64340459     0.14000
H1076       H  0.52381928  0.88153829  0.71868150    -0.00200
H1077       H  0.39895332  0.88386573  0.69510462     0.14300
H1078       H  0.47216042  0.98126955  0.64281435     0.14100
C1079       C  0.08803103  0.63380339  0.91027690     0.85900
C1080       C  0.06139514  0.69248665  0.90877550    -0.54300
C1081       C  0.03311724  0.69323412  0.92993958     0.08800
C1082       C  0.03396965  0.63374854  0.95072313     0.19800
C1083       C  0.10491230  0.63222017  0.94153780    -0.55000
C1084       C  0.07663259  0.63216152  0.96272713     0.09000
C1085       C  0.05984793  0.57677787  0.90969932    -0.54600
C1086       C  0.03148603  0.57594559  0.93078034     0.09500
H1087       H  0.06521070  0.73070607  0.89257797     0.14000
H1088       H  0.01130402  0.63363075  0.96813682    -0.00200
H1089       H  0.13629283  0.63143289  0.94649982     0.14300
H1090       H  0.06269488  0.53951714  0.89404746     0.14100
O1091       O  0.09345296  0.58518790  0.50858919    -0.79100
C1092       C  0.19433386  0.54526604  0.56862439     0.82000
O1093       O  0.02420502  0.54721984  0.59228283    -0.80200
O1094       O  0.13486664  0.61794765  0.64284264    -0.81700
O1095       O  0.16052097  0.74835305  0.55234227    -0.81500
O1096       O  0.08955267  0.69079301  0.50713639    -0.80100
Zn1097     Zn  0.10641640  0.55960957  0.55108881     1.55700
O1098       O  0.17053262  0.73045534  0.59961162    -0.81500
Cd1099     Cd  0.10266524  0.71268204  0.55014826     1.59700
Cd1100     Cd  0.05434592  0.63079163  0.60151509     1.59600
O1101       O  0.06050386  0.77592732  0.56452833    -0.81500
O1102       O  0.10075510  0.63378641  0.57510339    -1.92000
Cd1103     Cd  0.14658913  0.64190927  0.60102549     1.59900
O1104       O  0.02336267  0.71630202  0.59517770    -0.81400
O1105       O  0.19092694  0.58620295  0.58809259    -0.80100
C1106       C  0.03343203  0.49621844  0.57948761     0.82500
C1107       C  0.08747274  0.63769764  0.49467862     0.82100
O1108       O  0.16482413  0.52877096  0.55285877    -0.79000
C1109       C  0.18232030  0.75254805  0.57510231     0.82900
O1110       O  0.06503313  0.49211738  0.56441041    -0.79100
C1111       C  0.03073968  0.76886528  0.58135015     0.83100
C1112       C  0.10379017  0.61422010  0.65802114     0.83400
O1113       O  0.06972768  0.62150355  0.64635879    -0.81600
C1114       C  0.14526595  0.60779943  0.78093208     0.85900
C1115       C  0.17296712  0.66566789  0.78164029    -0.54300
C1116       C  0.19138411  0.67395651  0.80785115     0.08800
C1117       C  0.17864632  0.62498995  0.83158617     0.19800
C1118       C  0.17065480  0.55167950  0.79240554    -0.55000
C1119       C  0.19072951  0.56250352  0.81782816     0.09000
C1120       C  0.11579586  0.61744069  0.80536129    -0.54600
C1121       C  0.13276335  0.62594094  0.83205814     0.09500
H1122       H  0.18085845  0.69308518  0.76201689     0.14000
H1123       H  0.19266687  0.63207679  0.85318782    -0.00200
H1124       H  0.17751769  0.51158913  0.77909058     0.14300
H1125       H  0.08405775  0.61545138  0.80238283     0.14100
O1126       O  0.37575499  0.77127627  0.80324559    -0.79100
C1127       C  0.44898920  0.88360012  0.74363185     0.82000
O1128       O  0.51536675  0.79975426  0.84222545    -0.80200
O1129       O  0.47717515  0.02657156  0.81203046    -0.81700
O1130       O  0.36751497  0.97582200  0.84802818    -0.81500
O1131       O  0.34904786  0.82927878  0.83760701    -0.80100
Zn1132     Zn  0.43275338  0.80709309  0.80062813     1.55700
O1133       O  0.37629930  0.99466401  0.80071727    -0.81500
Cd1134     Cd  0.39240758  0.88846458  0.84987762     1.59700
Cd1135     Cd  0.48436902  0.88231293  0.85020469     1.59600
O1136       O  0.40506843  0.86529720  0.89181371    -0.81500
O1137       O  0.43765842  0.88265234  0.82382767    -1.92000
Cd1138     Cd  0.43456684  0.96108032  0.79841888     1.59900
O1139       O  0.47011550  0.87477526  0.89498400    -0.77000
O1140       O  0.44644191  0.93719584  0.75557806    -0.80100
C1141       C  0.50639563  0.74812036  0.82972274     0.82500
C1142       C  0.34634651  0.78631035  0.81899736     0.82100
O1143       O  0.44420427  0.83134674  0.75800368    -0.79000
C1144       C  0.35506045  0.99789480  0.82361970     0.82900
O1145       O  0.47489225  0.74259155  0.81440791    -0.79100
C1146       C  0.43660109  0.86463612  0.90679585     0.83100
C1147       C  0.50715532  0.02014158  0.82899313     0.83400
O1148       O  0.51449346  0.96798753  0.84307131    -0.81600
C1149       C  0.39363759  0.86614379  0.52845592     0.85900
C1150       C  0.36716894  0.81044425  0.53916322    -0.54300
C1151       C  0.34724513  0.82086406  0.56445932     0.08800
C1152       C  0.36006140  0.88254805  0.57873070     0.19800
C1153       C  0.36686557  0.92477203  0.52918906    -0.55000
C1154       C  0.34829570  0.93252219  0.55516775     0.09000
C1155       C  0.42307081  0.87437601  0.55345582    -0.54600
C1156       C  0.40580889  0.88222632  0.57999071     0.09500
H1157       H  0.35967941  0.77116102  0.52537982     0.14000
H1158       H  0.34590295  0.88937111  0.60013905    -0.00200
H1159       H  0.35943016  0.95291682  0.50964520     0.14300
H1160       H  0.45481324  0.87196672  0.55098219     0.14100
C1161       C  0.39910384  0.81877977  0.94835547    -0.13900
C1162       C  0.43225517  0.85299839  0.93856304     0.08200
C1163       C  0.45596959  0.88370656  0.95900367    -0.13900
C1164       C  0.44492776  0.88346676  0.98854678    -0.13900
C1165       C  0.41045525  0.85142480  0.99819131     0.08200
C1166       C  0.38786302  0.81922180  0.97743105    -0.13900
H1167       H  0.38007034  0.79496055  0.93302575     0.12200
H1168       H  0.48120958  0.91155814  0.95186366     0.12200
H1169       H  0.47046585  0.88329191  0.50392553     0.12200
H1170       H  0.35991626  0.79739847  0.98297384     0.12200
C1171       C  0.25843896  0.69988343  0.78735720    -0.13900
C1172       C  0.23025039  0.70626233  0.80961070     0.08200
C1173       C  0.24107576  0.73698061  0.83504637    -0.13900
C1174       C  0.27901647  0.76182018  0.83809330    -0.13900
C1175       C  0.30731197  0.75550679  0.81592429     0.08200
C1176       C  0.29670801  0.72389952  0.79058657    -0.13900
H1177       H  0.25127845  0.67467446  0.76779729     0.12200
H1178       H  0.22013300  0.74169239  0.85264185     0.12200
H1179       H  0.28623766  0.78590767  0.85796023     0.12200
H1180       H  0.31775630  0.71854281  0.77313051     0.12200
C1181       C  0.25669907  0.54008644  0.79582709    -0.13900
C1182       C  0.23248599  0.54114049  0.82074508     0.08200
C1183       C  0.24985062  0.53081461  0.84835554    -0.13900
C1184       C  0.29021920  0.51739948  0.85089650    -0.13900
C1185       C  0.31419755  0.51552068  0.82585413     0.08200
C1186       C  0.29479945  0.02725887  0.79461710    -0.13900
H1187       H  0.24475044  0.55042771  0.77422605     0.12200
H1188       H  0.23215914  0.53287076  0.86791302     0.12200
H1189       H  0.30252600  0.50758955  0.87244181     0.12200
H1190       H  0.31108925  0.02271788  0.77450656     0.12200
C1191       C  0.14613967  0.57964071  0.69957103    -0.13900
C1192       C  0.10941257  0.60263185  0.68983245     0.08200
C1193       C  0.08177908  0.62103615  0.71060681    -0.13900
C1194       C  0.09179523  0.61957928  0.74051155    -0.13900
C1195       C  0.12960094  0.59939761  0.75000544     0.08200
C1196       C  0.15630511  0.57936465  0.72892094    -0.13900
H1197       H  0.16820206  0.56481813  0.68423674     0.12200
H1198       H  0.05343943  0.63981501  0.70365347     0.12200
H1199       H  0.07071395  0.63781591  0.75564565     0.12200
H1200       H  0.18613955  0.56597100  0.73493176     0.12200
C1201       C  0.24796305  0.77827676  0.59773183    -0.13900
C1202       C  0.22352824  0.77574963  0.57272815     0.08200
C1203       C  0.24044652  0.78636222  0.54514194    -0.13900
C1204       C  0.28083484  0.79785029  0.54248298    -0.13900
C1205       C  0.30545118  0.79955591  0.56739240     0.08200
C1206       C  0.28844287  0.79063354  0.59506304    -0.13900
H1207       H  0.23594190  0.76967240  0.61934687     0.12200
H1208       H  0.22264508  0.78433969  0.52545879     0.12200
H1209       H  0.29252693  0.80722551  0.52083820     0.12200
H1210       H  0.30648592  0.79315564  0.61461208     0.12200
C1211       C  0.24545099  0.49184289  0.53827401    -0.13900
C1212       C  0.23434229  0.51892264  0.56454895     0.08200
C1213       C  0.26029497  0.01484760  0.58588100    -0.13900
C1214       C  0.29861450  0.99298685  0.58244669    -0.13900
C1215       C  0.30954326  0.96448338  0.55662645     0.08200
C1216       C  0.28122346  0.95825263  0.53414859    -0.13900
H1217       H  0.22428175  0.48699661  0.52068598     0.12200
H1218       H  0.25302521  0.03686575  0.60619756     0.12200
H1219       H  0.31965049  0.99763413  0.60016650     0.12200
H1220       H  0.29165534  0.44846835  0.51434166     0.12200
C1221       C  0.11864645  0.63290261  0.88609439    -0.17000
C1222       C  0.10687257  0.63286955  0.85794021    -0.32200
H1223       H  0.14970668  0.63000415  0.89178479     0.12000
H1224       H  0.07532494  0.63527277  0.85355144     0.12600
C1225       C  0.41800640  0.88559687  0.63455568    -0.17000
C1226       C  0.43088982  0.88680751  0.60669294    -0.32200
H1227       H  0.38675505  0.88334705  0.63938350     0.12000
H1228       H  0.46259752  0.88850724  0.60321062     0.12600
C1229       C  0.87870254  0.93785639  0.78591182    -0.13900
C1230       C  0.90631445  0.91893634  0.76516249     0.08200
C1231       C  0.94434028  0.90121491  0.77506028    -0.13900
C1232       C  0.95346943  0.89961566  0.80507803    -0.13900
C1233       C  0.92483744  0.91548009  0.82558608     0.08200
C1234       C  0.88794442  0.93702811  0.81549264    -0.13900
H1235       H  0.84893678  0.95044200  0.77939527     0.12200
H1236       H  0.96630916  0.88493046  0.76020175     0.12200
H1237       H  0.98213952  0.88255975  0.81230081     0.12200
H1238       H  0.86523615  0.95028877  0.83062527     0.12200
C1239       C  0.75165366  0.55204876  0.98234882    -0.13900
C1240       C  0.72273900  0.54425606  0.96043911     0.08200
C1241       C  0.73277866  0.51242079  0.93525565    -0.13900
C1242       C  0.77499116  0.99242387  0.92865840    -0.13900
C1243       C  0.80287204  0.99810686  0.95137746     0.08200
C1244       C  0.79023641  0.53017950  0.97856135    -0.13900
H1245       H  0.74500617  0.57793962  0.00171484     0.12200
H1246       H  0.71128029  0.50669331  0.91790985     0.12200
H1247       H  0.78312351  0.97218598  0.90810719     0.12200
H1248       H  0.81205992  0.53764480  0.99551651     0.12200
C1249       C  0.75933414  0.71311442  0.97459797    -0.13900
C1250       C  0.73505908  0.70874942  0.94956321     0.08200
C1251       C  0.75253982  0.71437881  0.92195692    -0.13900
C1252       C  0.79288429  0.72726488  0.91938042    -0.13900
C1253       C  0.81676481  0.73430132  0.94439248     0.08200
C1254       C  0.79966361  0.72574782  0.97205865    -0.13900
H1255       H  0.74738056  0.70591330  0.99636771     0.12200
H1256       H  0.73487177  0.70984327  0.90234120     0.12200
H1257       H  0.80514224  0.73373148  0.89768687     0.12200
H1258       H  0.81707554  0.73101701  0.99169027     0.12200
C1259       C  0.58858389  0.64765310  0.52341123    -0.13900
C1260       C  0.62817724  0.65678637  0.51455783     0.08200
C1261       C  0.65670465  0.66793071  0.53611732    -0.13900
C1262       C  0.64684198  0.66918437  0.56532587    -0.13900
C1263       C  0.60806124  0.65680197  0.57463063     0.08200
C1264       C  0.57869062  0.64737344  0.55334285    -0.13900
H1265       H  0.56564935  0.63795386  0.50774883     0.12200
H1266       H  0.68754537  0.67400879  0.53040332     0.12200
H1267       H  0.67043212  0.67740357  0.58078574     0.12200
H1268       H  0.54849771  0.63749441  0.55984787     0.12200
C1269       C  0.74596450  0.99054377  0.66478413    -0.13900
C1270       C  0.72203813  0.49515324  0.69320853     0.08200
C1271       C  0.74056856  0.48383772  0.72028115    -0.13900
C1272       C  0.78100980  0.47219156  0.72175869    -0.13900
C1273       C  0.80562067  0.97729585  0.69404329     0.08200
C1274       C  0.78655224  0.97942597  0.66675488    -0.13900
H1275       H  0.73226937  0.99376620  0.64334467     0.12200
H1276       H  0.72399185  0.48529163  0.74038524     0.12200
H1277       H  0.79385146  0.46199435  0.74312072     0.12200
H1278       H  0.80305006  0.97248254  0.64693850     0.12200
C1279       C  0.75938247  0.75208260  0.67642798    -0.13900
C1280       C  0.72963820  0.76198197  0.69719699     0.08200
C1281       C  0.73853816  0.79820544  0.72152037    -0.13900
C1282       C  0.77652149  0.82292385  0.72527227    -0.13900
C1283       C  0.80616835  0.81275543  0.70452544     0.08200
C1284       C  0.79708083  0.77783607  0.67991664    -0.13900
H1285       H  0.75352092  0.72444458  0.65735262     0.12200
H1286       H  0.71635879  0.80661133  0.73787088     0.12200
H1287       H  0.78246423  0.85137903  0.74406826     0.12200
H1288       H  0.81921191  0.77037491  0.66341999     0.12200
C1289       C  0.61952948  0.63540338  0.88003502    -0.17000
C1290       C  0.60671115  0.63427267  0.90789627    -0.32200
H1291       H  0.65087800  0.63791662  0.87530320     0.12000
H1292       H  0.57492102  0.63283829  0.91127927     0.12600
C1293       C  0.91845150  0.88307636  0.62899644    -0.17000
C1294       C  0.93047262  0.88282165  0.65715787    -0.32200
H1295       H  0.88742830  0.88615855  0.62342094     0.12000
H1296       H  0.96196648  0.88011989  0.66146932     0.12600
loop_ 
_geom_bond_atom_site_label_1 
_geom_bond_atom_site_label_2 
_geom_bond_distance 
_geom_bond_site_symmetry_2 
_ccdc_geom_bond_type 
C1            C2   1.533       .  S
C1            C7   1.537       .  S
C1            C5   1.540       .  S
C1          C321   1.525       .  S
C2            H9   1.086       .  S
C2            C3   1.365   1_655  D
C3            C4   1.549       .  S
C3          C782   1.491       .  S
C4            C8   1.549       .  S
C4            C6   1.542   1_455  S
C4           H10   1.111       .  S
C5           H11   1.086       .  S
C5            C6   1.370       .  D
C6           C76   1.474       .  S
C7           H12   1.086       .  S
C7            C8   1.369   1_655  D
C8          C139   1.491       .  S
C13          C14   1.537       .  S
C13          C19   1.532       .  S
C13          C17   1.544       .  S
C13         C317   1.528       .  S
C14          H21   1.086       .  S
C14          C15   1.368       .  D
C15          C16   1.548       .  S
C15         C823   1.491       .  S
C16          C20   1.549       .  S
C16          C18   1.542       .  S
C16          H22   1.111       .  S
C17          H23   1.086       .  S
C17          C18   1.374       .  D
C18          C41   1.479       .  S
C19          H24   1.087       .  S
C19          C20   1.363       .  D
C20         C169   1.489       .  S
O25          C41   1.276       .  A
O25         Zn31   2.039       .  S
C26          O42   1.280       .  A
C26          O39   1.267       .  A
C26         C308   1.479       .  S
O27          C40   1.283       .  A
O27         Cd34   2.088       .  S
O28          C46   1.267       .  A
O28         Cd37   2.025       .  S
O29          C43   1.281       .  A
O29         Cd33   2.107       .  S
O30          C41   1.278       .  A
O30         Cd33   2.099       .  S
Zn31         O42   2.068       .  S
Zn31         O44   2.054       .  S
Zn31         O36   1.956       .  S
O32          C43   1.269       .  A
O32         Cd37   2.033       .  S
Cd33         O35   2.107   1_545  S
Cd33         O36   1.999       .  S
Cd34         O38   2.077       .  S
Cd34         O47   2.105       .  S
Cd34         O36   1.986       .  S
O35          C45   1.281       .  A
O36         Cd37   1.964       .  S
Cd37         O39   2.010       .  S
O38          C45   1.281   1_545  A
C40          C97   1.489       .  S
C40          O44   1.280       .  A
C43         C298   1.483       .  S
C45         C750   1.488       .  S
C46          O47   1.274       .  A
C46         C291   1.470       .  S
C48          C49   1.545       .  S
C48          C54   1.524       .  S
C48          C52   1.548       .  S
C48         C612   1.531       .  S
C49         H380   1.087       .  S
C49          C50   1.368       .  D
C50          C51   1.536       .  S
C50         C268   1.483       .  S
C51          C55   1.550       .  S
C51          C53   1.539       .  S
C51          H57   1.108       .  S
C52         H382   1.082       .  S
C52          C53   1.370       .  D
C53         C278   1.492       .  S
C54          H59   1.087       .  S
C54          C55   1.363       .  D
C55         C318   1.495       .  S
H56         C373   1.087   1_554  S
H58         C376   1.080       .  S
O60         C400   1.277       .  A
O60         Zn66   2.038       .  S
C61          O77   1.279       .  A
C61          O74   1.266       .  A
C61         C281   1.482       .  S
O62          C75   1.284       .  A
O62         Cd69   2.101   1_455  S
O63          C81   1.266       .  A
O63         Cd72   2.003       .  S
O64          C78   1.282       .  A
O64         Cd68   2.118       .  S
O65          C76   1.276       .  A
O65        Cd392   2.079   1_554  S
Zn66         O77   2.069       .  S
Zn66         O79   2.051       .  S
Zn66         O71   1.943       .  S
O67          C78   1.269       .  A
O67         Cd72   2.028       .  S
Cd68         O70   2.109       .  S
Cd68        O389   2.083       .  S
Cd68         O71   2.001       .  S
Cd69         O73   2.095   1_655  S
Cd69         O82   2.116       .  S
Cd69         O71   1.988       .  S
O70          C80   1.281   1_655  A
O71         Cd72   1.957       .  S
Cd72         O74   2.026       .  S
O73          C80   1.284       .  A
C75         C109   1.491       .  S
C75          O79   1.280   1_455  A
C76         O384   1.278       .  A
C78         C271   1.482       .  S
C80         C762   1.493       .  S
C81          O82   1.277       .  A
C81         C261   1.480       .  S
C83          C84   1.544       .  S
C83          C89   1.526       .  S
C83          C87   1.542       .  S
C83         C258   1.524       .  S
C84          H91   1.086       .  S
C84          C85   1.369       .  D
C85          C86   1.539       .  S
C85         C301   1.495       .  S
C86          C90   1.555       .  S
C86          C88   1.536       .  S
C86          H92   1.107       .  S
C87          H93   1.087       .  S
C87          C88   1.365       .  D
C88         C311   1.483       .  S
C89          H94   1.084       .  S
C89          C90   1.366       .  D
C90         C322   1.493       .  S
C95          C96   1.532       .  S
C95         C101   1.535       .  S
C95          C99   1.541       .  S
C95         C253   1.526       .  S
C96         H103   1.087       .  S
C96          C97   1.364       .  D
C97          C98   1.550       .  S
C98         C102   1.548       .  S
C98         C100   1.544       .  S
C98         H104   1.111       .  S
C99         H105   1.086       .  S
C99         C100   1.372       .  D
C100        C155   1.477       .  S
C101        H106   1.086       .  S
C101        C102   1.368       .  D
C102        C693   1.491       .  S
C107        C108   1.536       .  S
C107        C113   1.533       .  S
C107        C111   1.538       .  S
C107        C249   1.520       .  S
C108        H115   1.087       .  S
C108        C109   1.367       .  D
C109        C110   1.550       .  S
C110        C114   1.549       .  S
C110        C112   1.542       .  S
C110        H116   1.111       .  S
C111        H117   1.085       .  S
C111        C112   1.369       .  D
C112        C459   1.471       .  S
C113        H118   1.087       .  S
C113        C114   1.364       .  D
C114        C728   1.489       .  S
O119        C135   1.277   1_554  A
O119       Zn125   2.046       .  S
C120        O136   1.282       .  A
C120        O133   1.268       .  A
C120        C240   1.483       .  S
O121        C134   1.285   1_545  A
O121       Cd128   2.095       .  S
O122        C140   1.266       .  A
O122       Cd131   2.003       .  S
O123        C137   1.278       .  A
O123       Cd127   2.111       .  S
O124        C135   1.275   1_554  A
O124       Cd127   2.077       .  S
Zn125       O136   2.079       .  S
Zn125       O138   2.063   1_545  S
Zn125       O130   1.956       .  S
O126        C137   1.266       .  A
O126       Cd131   2.031       .  S
Cd127       O129   2.095       .  S
Cd127       O130   1.996       .  S
Cd128       O132   2.105       .  S
Cd128       O141   2.123       .  S
Cd128       O130   1.995       .  S
O129        C139   1.280       .  A
O130       Cd131   1.955       .  S
Cd131       O133   2.018       .  S
O132        C139   1.284       .  A
C134        C651   1.493       .  S
C134        O138   1.281       .  A
C135        C436   1.473       .  S
C137        C230   1.483       .  S
C140        O141   1.277       .  A
C140        C220   1.485       .  S
C142        C143   1.545       .  S
C142        C148   1.523       .  S
C142        C146   1.542       .  S
C142        C223   1.524       .  S
C143        H150   1.087       .  S
C143        C144   1.366       .  D
C144        C145   1.532       .  S
C144        C200   1.484       .  S
C145        C149   1.556       .  S
C145        C147   1.543       .  S
C145        H151   1.106       .  S
C146        H152   1.086       .  S
C146        C147   1.369       .  D
C147        C210   1.501       .  S
C148        H153   1.082       .  S
C148        C149   1.365       .  D
C149        C250   1.489       .  S
O154        C170   1.281       .  A
O154       Zn160   2.066       .  S
C155        O171   1.276       .  A
C155        O168   1.277       .  A
O156        C169   1.283       .  A
O156       Cd163   2.092       .  S
O157        C175   1.280       .  A
O157       Cd166   2.102       .  S
O158        C172   1.269       .  A
O158       Cd162   2.034       .  S
O159        C170   1.268       .  A
O159       Cd162   2.021       .  S
Zn160       O171   2.044       .  S
Zn160       O173   2.052       .  S
Zn160       O165   1.953       .  S
O161        C172   1.280       .  A
O161       Cd166   2.105       .  S
Cd162       O164   2.027       .  S
Cd162       O165   1.969       .  S
Cd163       O167   2.112       .  S
Cd163       O176   2.088       .  S
Cd163       O165   1.987       .  S
O164        C174   1.267       .  A
O165       Cd166   2.000       .  S
Cd166       O168   2.089       .  S
O167        C174   1.276       .  A
C169        O173   1.279       .  A
C170        C203   1.482       .  S
C172        C861   1.482       .  S
C174        C190   1.470       .  S
C175        C663   1.489       .  S
C175        O176   1.282       .  A
C177        C178   1.548       .  S
C177        C183   1.520       .  S
C177        C181   1.546       .  S
C177        C517   1.530   1_554  S
C178        H185   1.082       .  S
C178        C179   1.370       .  D
C179        C180   1.539       .  S
C179        C233   1.494       .  S
C180        C184   1.550       .  S
C180        C182   1.538       .  S
C180        H186   1.108       .  S
C181        H187   1.086       .  S
C181        C182   1.370       .  D
C182        C243   1.486       .  S
C183        H188   1.088       .  S
C183        C184   1.361       .  D
C184        C254   1.492       .  S
C189        C190   1.400       .  A
C189        C194   1.395       .  A
C189        H195   1.083       .  S
C190        C191   1.402       .  A
C191        C192   1.404       .  A
C191        H196   1.084       .  S
C192        C193   1.412       .  A
C192        H521   1.083       .  S
C193        C501   1.534       .  S
C193        C194   1.410       .  A
C194        H198   1.080       .  S
H197        C516   1.082       .  S
C199        C200   1.410       .  A
C199        C204   1.399       .  A
C199        H205   1.082       .  S
C200        C201   1.398       .  A
C201        C202   1.396       .  A
C201        H206   1.084       .  S
C202        C203   1.411       .  A
C202        H207   1.082       .  S
C203        C204   1.402       .  A
C204        H208   1.083       .  S
C209        C210   1.415       .  A
C209        C862   1.396       .  A
C209        H215   1.080       .  S
C210        C211   1.404       .  A
C211        C212   1.400       .  A
C211        H216   1.085       .  S
C212        C213   1.409       .  A
C212        H217   1.081       .  S
C213        C820   1.480       .  S
C213        C862   1.399       .  A
C214        C857   1.396       .  A
C214        C861   1.401       .  A
C214        H218   1.083       .  S
C219        C220   1.405       .  A
C219        C224   1.383       .  A
C219        H225   1.084       .  S
C220        C221   1.407       .  A
C221        C222   1.410       .  A
C221        H226   1.081       .  S
C222        C223   1.413       .  A
C222        H227   1.081       .  S
C223        C224   1.403       .  A
C224        H228   1.084       .  S
C229        C230   1.410       .  A
C229        C234   1.398       .  A
C229        H235   1.083       .  S
C230        C231   1.402       .  A
C231        C232   1.398       .  A
C231        H236   1.083       .  S
C232        C233   1.413       .  A
C232        H237   1.082       .  S
C233        C234   1.401       .  A
C234        H238   1.082       .  S
C239        C240   1.403   1_565  A
C239        C892   1.402       .  A
C239        H245   1.082       .  S
C240        C889   1.410       .  A
C241        C242   1.393       .  A
C241        C888   1.409       .  A
C241        H246   1.085       .  S
C242        C243   1.399       .  A
C242        H247   1.082       .  S
C243        C244   1.411       .  A
C244        C887   1.403       .  A
C244        H896   1.084       .  S
H248        C892   1.084       .  S
C249        H251   1.080       .  S
C249        C250   1.348       .  D
C250        H252   1.084       .  S
C253        H255   1.086       .  S
C253        C254   1.350       .  D
C254        H256   1.089       .  S
C257        C258   1.404       .  A
C257        C262   1.384       .  A
C257        H263   1.085       .  S
C258        C259   1.414       .  A
C259        C260   1.408       .  A
C259        H264   1.079       .  S
C260        C261   1.405       .  A
C260        H265   1.083       .  S
C261        C262   1.404       .  A
C262        H266   1.083       .  S
C267        C268   1.410       .  A
C267        C272   1.402       .  A
C267        H273   1.083       .  S
C268        C269   1.398       .  A
C269        C918   1.394       .  A
C269        H274   1.084       .  S
C270        C271   1.410       .  A
C270        C917   1.398       .  A
C270        H275   1.084       .  S
C271        C920   1.401       .  A
C272        C919   1.403       .  A
C272        H276   1.083       .  S
C277        C278   1.413       .  A
C277        C282   1.397       .  A
C277        H283   1.082       .  S
C278        C279   1.400       .  A
C279        C280   1.398       .  A
C279        H284   1.086       .  S
C280        C281   1.411       .  A
C280        H285   1.082       .  S
C281        C282   1.401       .  A
C282        H286   1.083       .  S
C287        C288   1.411       .  A
C287        C292   1.391       .  A
C287        H293   1.075       .  S
C288        C372   1.532   1_554  S
C288        C289   1.413       .  A
C289        C290   1.404       .  A
C289        H294   1.082       .  S
C290        C291   1.401       .  A
C290        H295   1.084       .  S
C291        C292   1.398       .  A
C292        H296   1.083       .  S
C297        C302   1.402       .  A
C297        C946   1.410       .  A
C297        H303   1.084       .  S
C298        C299   1.400   1_545  A
C298        C945   1.413       .  A
C299        C300   1.396       .  A
C299        H304   1.084       .  S
C300        C949   1.412       .  A
C300        H305   1.081       .  S
C301        C302   1.403       .  A
C301        C948   1.412       .  A
C302        H306   1.082       .  S
C307        C308   1.410       .  A
C307        C312   1.392       .  A
C307        H313   1.082       .  S
C308        C309   1.402       .  A
C309        C310   1.401       .  A
C309        H314   1.084       .  S
C310        C311   1.412       .  A
C310        H315   1.082       .  S
C311        C312   1.397       .  A
C312        H316   1.084       .  S
C317        H319   1.085       .  S
C317        C318   1.352       .  D
C318        H320   1.089       .  S
C321        H323   1.085       .  S
C321        C322   1.349       .  D
C322        H324   1.088       .  S
C325        C326   1.533       .  S
C325        C331   1.536       .  S
C325        C329   1.536       .  S
C325        C645   1.521       .  S
C326        H333   1.086       .  S
C326        C327   1.365   1_655  D
C327        C328   1.551       .  S
C327       C1106   1.494       .  S
C328        C332   1.551       .  S
C328        C330   1.545   1_455  S
C328        H334   1.111       .  S
C329        H335   1.087       .  S
C329        C330   1.368       .  D
C330        C400   1.473       .  S
C331        H336   1.085       .  S
C331        C332   1.369   1_655  D
C332        C463   1.489       .  S
C337        C338   1.534       .  S
C337        C343   1.533       .  S
C337        C341   1.539       .  S
C337        C641   1.520       .  S
C338        H345   1.086       .  S
C338        C339   1.366       .  D
C339        C340   1.549       .  S
C339       C1147   1.489       .  S
C340        C344   1.550       .  S
C340        C342   1.544       .  S
C340        H346   1.111       .  S
C341        H347   1.086       .  S
C341        C342   1.371       .  D
C342        C365   1.473       .  S
C343        H348   1.086       .  S
C343        C344   1.364       .  D
C344        C493   1.490       .  S
O349        C365   1.276       .  A
O349       Zn355   2.039       .  S
C350        O366   1.281       .  A
C350        O363   1.268       .  A
C350        C632   1.477       .  S
O351        C364   1.283       .  A
O351       Cd358   2.091       .  S
O352        C370   1.267       .  A
O352       Cd361   2.025       .  S
O353        C367   1.279       .  A
O353       Cd357   2.093       .  S
O354        C365   1.276       .  A
O354       Cd357   2.082       .  S
Zn355       O366   2.070       .  S
Zn355       O368   2.061       .  S
Zn355       O360   1.952       .  S
O356        C367   1.269       .  A
O356       Cd361   2.039       .  S
Cd357       O359   2.096   1_545  S
Cd357       O360   1.997       .  S
Cd358       O362   2.092       .  S
Cd358       O371   2.103       .  S
Cd358       O360   1.982       .  S
O359        C369   1.279       .  A
O360       Cd361   1.970       .  S
Cd361       O363   2.022       .  S
O362        C369   1.282   1_545  A
C364        C421   1.492       .  S
C364        O368   1.281       .  A
C367        C622   1.477   1_545  S
C369       C1074   1.488       .  S
C370        O371   1.275       .  A
C370        C615   1.467       .  S
C372        C373   1.544       .  S
C372        C378   1.522       .  S
C372        C376   1.549       .  S
C373        C374   1.369       .  D
C374        C375   1.538       .  S
C374        C592   1.485       .  S
C375        C379   1.549       .  S
C375        C377   1.533       .  S
C375        H381   1.108       .  S
C376        C377   1.367       .  D
C377        C602   1.488       .  S
C378        H383   1.087       .  S
C378        C379   1.363       .  D
C379        C642   1.487       .  S
O384       Zn390   2.047   1_554  S
C385        O401   1.280       .  A
C385        O398   1.266       .  A
C385        C605   1.478       .  S
O386        C399   1.284       .  A
O386       Cd393   2.106   1_455  S
O387        C405   1.267       .  A
O387       Cd396   2.008       .  S
O388        C402   1.282       .  A
O388       Cd392   2.128       .  S
O389        C400   1.276       .  A
Zn390       O401   2.059       .  S
Zn390       O403   2.055       .  S
Zn390       O395   1.942       .  S
O391        C402   1.269       .  A
O391       Cd396   2.027       .  S
Cd392       O394   2.111       .  S
Cd392       O395   2.006       .  S
Cd393       O397   2.092   1_655  S
Cd393       O406   2.112       .  S
Cd393       O395   1.991       .  S
O394        C404   1.283   1_655  A
O395       Cd396   1.954       .  S
Cd396       O398   2.026       .  S
O397        C404   1.284       .  A
C399        C433   1.495       .  S
C399        O403   1.280   1_455  A
C402        C595   1.486       .  S
C404       C1086   1.492       .  S
C405        O406   1.277       .  A
C405        C585   1.482       .  S
C407        C408   1.539       .  S
C407        C413   1.521       .  S
C407        C411   1.544       .  S
C407        C582   1.521       .  S
C408        H415   1.087       .  S
C408        C409   1.365       .  D
C409        C410   1.541       .  S
C409        C625   1.495       .  S
C410        C414   1.560       .  S
C410        C412   1.537       .  S
C410        H416   1.106       .  S
C411        H417   1.086       .  S
C411        C412   1.367       .  D
C412        C635   1.492       .  S
C413        H418   1.085       .  S
C413        C414   1.366       .  D
C414        C646   1.490       .  S
C419        C420   1.533       .  S
C419        C425   1.533       .  S
C419        C423   1.543       .  S
C419        C577   1.526       .  S
C420        H427   1.086       .  S
C420        C421   1.365       .  D
C421        C422   1.551       .  S
C422        C426   1.549       .  S
C422        C424   1.544       .  S
C422        H428   1.111       .  S
C423        H429   1.086       .  S
C423        C424   1.373       .  D
C424        C479   1.478       .  S
C425        H430   1.086       .  S
C425        C426   1.365       .  D
C426       C1017   1.487       .  S
C431        C432   1.538       .  S
C431        C437   1.535       .  S
C431        C435   1.539       .  S
C431        C573   1.526       .  S
C432        H439   1.086       .  S
C432        C433   1.369       .  D
C433        C434   1.552       .  S
C434        C438   1.550       .  S
C434        C436   1.541       .  S
C434        H440   1.111       .  S
C435        H441   1.086       .  S
C435        C436   1.369       .  D
C437        H442   1.086       .  S
C437        C438   1.367       .  D
C438       C1052   1.493       .  S
O443        C459   1.277       .  A
O443       Zn449   2.040       .  S
C444        O460   1.282       .  A
C444        O457   1.266       .  A
C444        C564   1.481       .  S
O445        C458   1.283   1_545  A
O445       Cd452   2.088       .  S
O446        C464   1.267       .  A
O446       Cd455   2.005       .  S
O447        C461   1.279       .  A
O447       Cd451   2.101       .  S
O448        C459   1.276       .  A
O448       Cd451   2.076       .  S
Zn449       O460   2.083       .  S
Zn449       O462   2.072   1_545  S
Zn449       O454   1.956       .  S
O450        C461   1.268       .  A
O450       Cd455   2.037       .  S
Cd451       O453   2.089       .  S
Cd451       O454   1.991       .  S
Cd452       O456   2.101       .  S
Cd452       O465   2.108       .  S
Cd452       O454   1.990       .  S
O453        C463   1.279       .  A
O454       Cd455   1.955       .  S
Cd455       O457   2.007       .  S
O456        C463   1.284       .  A
C458        C975   1.494       .  S
C458        O462   1.282       .  A
C461        C554   1.482       .  S
C464        O465   1.276       .  A
C464        C544   1.477       .  S
C466        C467   1.543       .  S
C466        C472   1.524       .  S
C466        C470   1.543       .  S
C466        C547   1.523       .  S
C467        H474   1.086       .  S
C467        C468   1.368       .  D
C468        C469   1.541       .  S
C468        C524   1.493       .  S
C469        C473   1.558       .  S
C469        C471   1.540       .  S
C469        H475   1.107       .  S
C470        H476   1.086       .  S
C470        C471   1.367       .  D
C471        C534   1.494       .  S
C472        H477   1.083       .  S
C472        C473   1.364       .  D
C473        C574   1.494       .  S
O478        C494   1.281       .  A
O478       Zn484   2.074       .  S
C479        O495   1.275       .  A
C479        O492   1.278       .  A
O480        C493   1.284       .  A
O480       Cd487   2.092       .  S
O481        C499   1.280       .  A
O481       Cd490   2.102       .  S
O482        C496   1.270       .  A
O482       Cd486   2.042       .  S
O483        C494   1.269       .  A
O483       Cd486   2.028       .  S
Zn484       O495   2.036       .  S
Zn484       O497   2.057       .  S
Zn484       O489   1.953       .  S
O485        C496   1.280       .  A
O485       Cd490   2.100       .  S
Cd486       O488   2.034       .  S
Cd486       O489   1.973       .  S
Cd487       O491   2.101       .  S
Cd487       O500   2.091       .  S
Cd487       O489   1.985       .  S
O488        C498   1.268       .  A
O489       Cd490   1.995       .  S
Cd490       O492   2.097       .  S
O491        C498   1.275       .  A
C493        O497   1.281       .  A
C494        C527   1.484       .  S
C496       C1185   1.482       .  S
C498        C514   1.467       .  S
C499        C987   1.490       .  S
C499        O500   1.282       .  A
C501        C502   1.548       .  S
C501        C507   1.522       .  S
C501        C505   1.545       .  S
C502        H509   1.083       .  S
C502        C503   1.370       .  D
C503        C504   1.535       .  S
C503        C557   1.489       .  S
C504        C508   1.549       .  S
C504        C506   1.540       .  S
C504        H510   1.109       .  S
C505        H511   1.086       .  S
C505        C506   1.371       .  D
C506        C567   1.487       .  S
C507        H512   1.087       .  S
C507        C508   1.363       .  D
C508        C578   1.493       .  S
C513        C514   1.399       .  A
C513        C518   1.395       .  A
C513        H519   1.083       .  S
C514        C515   1.401       .  A
C515        C516   1.401       .  A
C515        H520   1.085       .  S
C516        C517   1.411       .  A
C517        C518   1.410       .  A
C518        H522   1.080       .  S
C523        C524   1.413       .  A
C523        C528   1.403       .  A
C523        H529   1.080       .  S
C524        C525   1.400       .  A
C525        C526   1.396       .  A
C525        H530   1.084       .  S
C526        C527   1.409       .  A
C526        H531   1.081       .  S
C527        C528   1.402       .  A
C528        H532   1.085       .  S
C533        C534   1.413       .  A
C533       C1186   1.396       .  A
C533        H539   1.081       .  S
C534        C535   1.401       .  A
C535        C536   1.400       .  A
C535        H540   1.084       .  S
C536        C537   1.410       .  A
C536        H541   1.082       .  S
C537       C1144   1.481   1_545  S
C537       C1186   1.400       .  A
C538       C1181   1.394       .  A
C538       C1185   1.401       .  A
C538        H542   1.083       .  S
C543        C544   1.403       .  A
C543        C548   1.384       .  A
C543        H549   1.082       .  S
C544        C545   1.404       .  A
C545        C546   1.407       .  A
C545        H550   1.084       .  S
C546        C547   1.414       .  A
C546        H551   1.078       .  S
C547        C548   1.404       .  A
C548        H552   1.083       .  S
C553        C554   1.410       .  A
C553        C558   1.400       .  A
C553        H559   1.084       .  S
C554        C555   1.402       .  A
C555        C556   1.395       .  A
C555        H560   1.082       .  S
C556        C557   1.409       .  A
C556        H561   1.083       .  S
C557        C558   1.401       .  A
C558        H562   1.082       .  S
C563        C564   1.402   1_565  A
C563       C1216   1.402       .  A
C563        H569   1.083       .  S
C564       C1213   1.411       .  A
C565       C1212   1.410       .  A
C565        C566   1.396       .  A
C565        H570   1.085       .  S
C566        C567   1.399       .  A
C566        H571   1.082       .  S
C567        C568   1.410       .  A
C568       C1211   1.402       .  A
C568       H1220   1.084       .  S
H572       C1216   1.083       .  S
C573        H575   1.084       .  S
C573        C574   1.348       .  D
C574        H576   1.087       .  S
C577        H579   1.084       .  S
C577        C578   1.351       .  D
C578        H580   1.088       .  S
C581        C582   1.403       .  A
C581        C586   1.382       .  A
C581        H587   1.085       .  S
C582        C583   1.412       .  A
C583        C584   1.409       .  A
C583        H588   1.076       .  S
C584        C585   1.406       .  A
C584        H589   1.084       .  S
C585        C586   1.405       .  A
C586        H590   1.080       .  S
C591        C592   1.411       .  A
C591        C596   1.401       .  A
C591        H597   1.083   1_556  S
C592        C593   1.399       .  A
C593       C1242   1.394   1_545  A
C593        H598   1.083       .  S
C594       C1241   1.396       .  A
C594        C595   1.411       .  A
C594        H599   1.083       .  S
C595       C1244   1.403       .  A
C596       C1243   1.402   1_545  A
C596        H600   1.082       .  S
C601        C602   1.411       .  A
C601        C606   1.393       .  A
C601        H607   1.083       .  S
C602        C603   1.399       .  A
C603        C604   1.399       .  A
C603        H608   1.086       .  S
C604        C605   1.412       .  A
C604        H609   1.082       .  S
C605        C606   1.399       .  A
C606        H610   1.085       .  S
C611        C612   1.411       .  A
C611        C616   1.395       .  A
C611        H617   1.078       .  S
C612        C613   1.412       .  A
C613        C614   1.401       .  A
C613        H618   1.083       .  S
C614        C615   1.399       .  A
C614        H619   1.084       .  S
C615        C616   1.400       .  A
C616        H620   1.083       .  S
C621       C1270   1.411       .  A
C621        C626   1.399       .  A
C621        H627   1.084       .  S
C622       C1269   1.408       .  A
C622        C623   1.400       .  A
C623        C624   1.393       .  A
C623        H628   1.083   1_565  S
C624       C1273   1.412       .  A
C624        H629   1.082       .  S
C625       C1272   1.414       .  A
C625        C626   1.400       .  A
C626        H630   1.083       .  S
C631        C632   1.408       .  A
C631        C636   1.397       .  A
C631        H637   1.082       .  S
C632        C633   1.399       .  A
C633        C634   1.398       .  A
C633        H638   1.084       .  S
C634        C635   1.413       .  A
C634        H639   1.080       .  S
C635        C636   1.402       .  A
C636        H640   1.083       .  S
C641        H643   1.085       .  S
C641        C642   1.349       .  D
C642        H644   1.089       .  S
C645        H647   1.086       .  S
C645        C646   1.346       .  D
C646        H648   1.090       .  S
C649        C650   1.533       .  S
C649        C655   1.535       .  S
C649        C653   1.536       .  S
C649        C969   1.519       .  S
C650        H657   1.086       .  S
C650        C651   1.365   1_655  D
C651        C652   1.551       .  S
C652        C656   1.552       .  S
C652        C654   1.543   1_455  S
C652        H658   1.111       .  S
C653        H659   1.086       .  S
C653        C654   1.368       .  D
C654        C724   1.471       .  S
C655        H660   1.086       .  S
C655        C656   1.367   1_655  D
C656        C787   1.490       .  S
C661        C662   1.533       .  S
C661        C667   1.531       .  S
C661        C665   1.539       .  S
C661        C965   1.522       .  S
C662        H669   1.086       .  S
C662        C663   1.367       .  D
C663        C664   1.549       .  S
C664        C668   1.551       .  S
C664        C666   1.544       .  S
C664        H670   1.111       .  S
C665        H671   1.086       .  S
C665        C666   1.370       .  D
C666        C689   1.472       .  S
C667        H672   1.086       .  S
C667        C668   1.365       .  D
C668        C817   1.491       .  S
O673        C689   1.275       .  A
O673       Zn679   2.031       .  S
C674        O690   1.280       .  A
C674        O687   1.267       .  A
C674        C956   1.476       .  S
O675        C688   1.282       .  A
O675       Cd682   2.087       .  S
O676        C694   1.267       .  A
O676       Cd685   2.021       .  S
O677        C691   1.281       .  A
O677       Cd681   2.106       .  S
O678        C689   1.277       .  A
O678       Cd681   2.086       .  S
Zn679       O690   2.062       .  S
Zn679       O692   2.048       .  S
Zn679       O684   1.948       .  S
O680        C691   1.270       .  A
O680       Cd685   2.043       .  S
Cd681       O683   2.106       .  S
Cd681       O684   1.992       .  S
Cd682       O686   2.088       .  S
Cd682       O695   2.091       .  S
Cd682       O684   1.982       .  S
O683        C693   1.281       .  A
O684       Cd685   1.965       .  S
Cd685       O687   2.017       .  S
O686        C693   1.282       .  A
C688        C745   1.487       .  S
C688        O692   1.279       .  A
C691        C946   1.484       .  S
C694        O695   1.274       .  A
C694        C939   1.462       .  S
C696        C697   1.542       .  S
C696        C702   1.525       .  S
C696        C700   1.543       .  S
C696       C1260   1.526       .  S
C697       H1028   1.087       .  S
C697        C698   1.366       .  D
C698        C699   1.535       .  S
C698        C916   1.486       .  S
C699        C703   1.555       .  S
C699        C701   1.539       .  S
C699        H705   1.108       .  S
C700       H1030   1.086       .  S
C700        C701   1.367       .  D
C701        C926   1.492       .  S
C702        H707   1.084       .  S
C702        C703   1.367       .  D
C703        C966   1.490       .  S
H704       C1021   1.087   1_554  S
H706       C1024   1.080       .  S
O708       C1048   1.278       .  A
O708       Zn714   2.049       .  S
C709        O725   1.280       .  A
C709        O722   1.266       .  A
C709        C929   1.482       .  S
O710        C723   1.284       .  A
O710       Cd717   2.101   1_455  S
O711        C729   1.266       .  A
O711       Cd720   2.001       .  S
O712        C726   1.280   1_545  A
O712       Cd716   2.115   1_545  S
O713        C724   1.276       .  A
O713      Cd1040   2.080   1_554  S
Zn714       O725   2.076       .  S
Zn714       O727   2.066       .  S
Zn714       O719   1.947       .  S
O715        C726   1.268       .  A
O715       Cd720   2.025       .  S
Cd716      O1037   2.076       .  S
Cd716       O718   2.095   1_565  S
Cd716       O719   2.007       .  S
Cd717       O721   2.099   1_655  S
Cd717       O730   2.121       .  S
Cd717       O719   1.997       .  S
O718        C728   1.280   1_655  A
O719       Cd720   1.953       .  S
Cd720       O722   2.022       .  S
O721        C728   1.285   1_565  A
C723        C757   1.496       .  S
C723        O727   1.282   1_455  A
C724       O1032   1.277       .  A
C726        C919   1.483   1_565  S
C729        O730   1.277       .  A
C729        C909   1.483       .  S
C731        C732   1.543       .  S
C731        C737   1.524       .  S
C731        C735   1.542       .  S
C731        C906   1.523       .  S
C732        H739   1.087       .  S
C732        C733   1.366       .  D
C733        C734   1.537       .  S
C733        C949   1.489       .  S
C734        C738   1.555       .  S
C734        C736   1.536       .  S
C734        H740   1.107       .  S
C735        H741   1.087       .  S
C735        C736   1.366       .  D
C736        C959   1.486       .  S
C737        H742   1.083       .  S
C737        C738   1.366       .  D
C738        C970   1.487       .  S
C743        C744   1.533       .  S
C743        C749   1.534       .  S
C743        C747   1.539       .  S
C743        C901   1.522       .  S
C744        H751   1.086       .  S
C744        C745   1.365       .  D
C745        C746   1.549       .  S
C746        C750   1.546       .  S
C746        C748   1.541       .  S
C746        H752   1.111       .  S
C747        H753   1.086       .  S
C747        C748   1.370       .  D
C748        C803   1.471       .  S
C749        H754   1.086       .  S
C749        C750   1.368       .  D
C755        C756   1.537       .  S
C755        C761   1.533       .  S
C755        C759   1.541       .  S
C755        C897   1.530       .  S
C756        H763   1.086       .  S
C756        C757   1.370       .  D
C757        C758   1.551       .  S
C758        C762   1.551       .  S
C758        C760   1.544       .  S
C758        H764   1.111       .  S
C759        H765   1.084       .  S
C759        C760   1.371       .  D
C760       C1107   1.476       .  S
C761        H766   1.087       .  S
C761        C762   1.366       .  D
O767        C783   1.277   1_554  A
O767       Zn773   2.044       .  S
C768        O784   1.282       .  A
C768        O781   1.267       .  A
C768        C888   1.483       .  S
O769        C782   1.283       .  A
O769       Cd776   2.087       .  S
O770        C788   1.267       .  A
O770       Cd779   2.011       .  S
O771        C785   1.279       .  A
O771       Cd775   2.099       .  S
O772        C783   1.276   1_554  A
O772       Cd775   2.080       .  S
Zn773       O784   2.088       .  S
Zn773       O786   2.066       .  S
Zn773       O778   1.957       .  S
O774        C785   1.268       .  A
O774       Cd779   2.037       .  S
Cd775       O777   2.090       .  S
Cd775       O778   1.993       .  S
Cd776       O780   2.105       .  S
Cd776       O789   2.115       .  S
Cd776       O778   1.990       .  S
O777        C787   1.278       .  A
O778       Cd779   1.957       .  S
Cd779       O781   2.014       .  S
O780        C787   1.284       .  A
C782        O786   1.282       .  A
C783       C1084   1.474       .  S
C785        C878   1.479       .  S
C788        O789   1.277       .  A
C788        C868   1.482       .  S
C790        C791   1.540       .  S
C790        C796   1.527       .  S
C790        C794   1.542       .  S
C790        C871   1.525       .  S
C791        H798   1.087       .  S
C791        C792   1.365       .  D
C792        C793   1.541       .  S
C792        C848   1.489       .  S
C793        C797   1.558       .  S
C793        C795   1.540       .  S
C793        H799   1.109       .  S
C794        H800   1.087       .  S
C794        C795   1.366       .  D
C795        C858   1.489       .  S
C796        H801   1.082       .  S
C796        C797   1.368       .  D
C797        C898   1.497       .  S
O802        C818   1.282       .  A
O802       Zn808   2.083       .  S
C803        O819   1.276       .  A
C803        O816   1.276       .  A
O804        C817   1.283       .  A
O804       Cd811   2.086       .  S
O805        C823   1.281       .  A
O805       Cd814   2.100   1_545  S
O806        C820   1.266   1_565  A
O806       Cd810   2.030       .  S
O807        C818   1.268       .  A
O807       Cd810   2.021       .  S
Zn808       O819   2.035       .  S
Zn808       O821   2.064       .  S
Zn808       O813   1.953       .  S
O809        C820   1.279   1_565  A
O809       Cd814   2.109       .  S
Cd810       O812   2.004       .  S
Cd810       O813   1.953       .  S
Cd811       O815   2.121       .  S
Cd811       O824   2.098       .  S
Cd811       O813   1.991       .  S
O812        C822   1.266       .  A
O813       Cd814   1.996       .  S
Cd814       O816   2.082       .  S
O815        C822   1.277       .  A
C817        O821   1.281       .  A
C818        C851   1.484       .  S
C822        C838   1.484       .  S
C823        O824   1.283   1_545  A
C825        C826   1.546       .  S
C825        C831   1.524       .  S
C825        C829   1.541       .  S
C825       C1165   1.525   1_554  S
C826        H833   1.084       .  S
C826        C827   1.368       .  D
C827        C828   1.537       .  S
C827        C881   1.492       .  S
C828        C832   1.553       .  S
C828        C830   1.537       .  S
C828        H834   1.108       .  S
C829        H835   1.086       .  S
C829        C830   1.367       .  D
C830        C891   1.485       .  S
C831        H836   1.085       .  S
C831        C832   1.363       .  D
C832        C902   1.489       .  S
C837        C838   1.404       .  A
C837        C842   1.383       .  A
C837        H843   1.085       .  S
C838        C839   1.407       .  A
C839        C840   1.411       .  A
C839        H844   1.081       .  S
C840        C841   1.414       .  A
C840       H1169   1.081       .  S
C841       C1149   1.526       .  S
C841        C842   1.404       .  A
C842        H846   1.082       .  S
H845       C1164   1.082   1_554  S
C847        C848   1.413       .  A
C847        C852   1.402       .  A
C847        H853   1.080       .  S
C848        C849   1.398       .  A
C849        C850   1.396       .  A
C849        H854   1.085       .  S
C850        C851   1.411       .  A
C850        H855   1.081       .  S
C851        C852   1.401       .  A
C852        H856   1.085       .  S
C857        C858   1.412       .  A
C857        H863   1.083       .  S
C858        C859   1.398       .  A
C859        C860   1.399       .  A
C859        H864   1.084       .  S
C860        C861   1.411       .  A
C860        H865   1.083       .  S
C862        H866   1.084       .  S
C867        C868   1.403       .  A
C867        C872   1.384       .  A
C867        H873   1.083       .  S
C868        C869   1.406       .  A
C869        C870   1.409       .  A
C869        H874   1.083       .  S
C870        C871   1.413       .  A
C870        H875   1.079       .  S
C871        C872   1.406       .  A
C872        H876   1.082       .  S
C877        C878   1.409       .  A
C877        C882   1.401       .  A
C877        H883   1.085       .  S
C878        C879   1.401       .  A
C879        C880   1.394       .  A
C879        H884   1.081       .  S
C880        C881   1.411       .  A
C880        H885   1.085       .  S
C881        C882   1.403       .  A
C882        H886   1.082       .  S
C887        C888   1.403       .  A
C887        H893   1.082       .  S
C889        C890   1.394   1_545  A
C889        H894   1.084       .  S
C890        C891   1.399       .  A
C890        H895   1.083       .  S
C891        C892   1.410       .  A
C897        H899   1.080       .  S
C897        C898   1.352       .  D
C898        H900   1.083       .  S
C901        H903   1.083       .  S
C901        C902   1.348       .  D
C902        H904   1.086       .  S
C905        C906   1.402       .  A
C905        C910   1.381       .  A
C905        H911   1.085       .  S
C906        C907   1.414       .  A
C907        C908   1.410       .  A
C907        H912   1.077       .  S
C908        C909   1.406       .  A
C908        H913   1.084       .  S
C909        C910   1.405       .  A
C910        H914   1.082       .  S
C915        C916   1.410       .  A
C915        C920   1.399       .  A
C915        H921   1.083       .  S
C916        C917   1.400       .  A
C917        H922   1.083       .  S
C918        C919   1.410       .  A
C918        H923   1.083   1_545  S
C920        H924   1.083       .  S
C925        C926   1.412       .  A
C925        C930   1.398       .  A
C925        H931   1.085       .  S
C926        C927   1.401       .  A
C927        C928   1.399       .  A
C927        H932   1.081       .  S
C928        C929   1.410       .  A
C928        H933   1.084       .  S
C929        C930   1.402       .  A
C930        H934   1.079       .  S
C935        C936   1.411       .  A
C935        C940   1.393       .  A
C935        H941   1.076       .  S
C936       C1020   1.527   1_554  S
C936        C937   1.411       .  A
C937        C938   1.399       .  A
C937        H942   1.083       .  S
C938        C939   1.399       .  A
C938        H943   1.083       .  S
C939        C940   1.398       .  A
C940        H944   1.084       .  S
C945        C950   1.400   1_545  A
C945        H951   1.081       .  S
C946        C947   1.402       .  A
C947        C948   1.396       .  A
C947        H952   1.082       .  S
C948        H953   1.084       .  S
C949        C950   1.399       .  A
C950        H954   1.085       .  S
C955        C956   1.409       .  A
C955        C960   1.395       .  A
C955        H961   1.082       .  S
C956        C957   1.400       .  A
C957        C958   1.398       .  A
C957        H962   1.085       .  S
C958        C959   1.412       .  A
C958        H963   1.081       .  S
C959        C960   1.399       .  A
C960        H964   1.085       .  S
C965        H967   1.083       .  S
C965        C966   1.349       .  D
C966        H968   1.087       .  S
C969        H971   1.084       .  S
C969        C970   1.347       .  D
C970        H972   1.088       .  S
C973        C974   1.534       .  S
C973        C979   1.536       .  S
C973        C977   1.539       .  S
C973       C1293   1.523       .  S
C974        H981   1.086       .  S
C974        C975   1.366   1_655  D
C975        C976   1.549       .  S
C976        C980   1.550       .  S
C976        C978   1.542   1_455  S
C976        H982   1.111       .  S
C977        H983   1.086       .  S
C977        C978   1.370       .  D
C978       C1048   1.474       .  S
C979        H984   1.086       .  S
C979        C980   1.367   1_655  D
C980       C1111   1.488       .  S
C985        C986   1.535       .  S
C985        C991   1.533       .  S
C985        C989   1.541       .  S
C985       C1289   1.526       .  S
C986        H993   1.087       .  S
C986        C987   1.367       .  D
C987        C988   1.548       .  S
C988        C992   1.549       .  S
C988        C990   1.542       .  S
C988        H994   1.111       .  S
C989        H995   1.086       .  S
C989        C990   1.372       .  D
C990       C1013   1.476       .  S
C991        H996   1.087       .  S
C991        C992   1.366       .  D
C992       C1141   1.490       .  S
O997       C1013   1.277       .  A
O997      Zn1003   2.049       .  S
C998       O1014   1.282       .  A
C998       O1011   1.269       .  A
C998       C1280   1.482       .  S
O999       C1012   1.284       .  A
O999      Cd1006   2.092       .  S
O1000      C1018   1.265       .  A
O1000     Cd1009   1.999       .  S
O1001      C1015   1.279       .  A
O1001     Cd1005   2.109       .  S
O1002      C1013   1.276       .  A
O1002     Cd1005   2.082       .  S
Zn1003     O1014   2.072       .  S
Zn1003     O1016   2.060       .  S
Zn1003     O1008   1.949       .  S
O1004      C1015   1.265       .  A
O1004     Cd1009   2.028       .  S
Cd1005     O1007   2.092       .  S
Cd1005     O1008   1.998       .  S
Cd1006     O1010   2.096       .  S
Cd1006     O1019   2.128       .  S
Cd1006     O1008   1.994       .  S
O1007      C1017   1.280       .  A
O1008     Cd1009   1.954       .  S
Cd1009     O1011   2.021       .  S
O1010      C1017   1.284       .  A
C1012      C1069   1.491       .  S
C1012      O1016   1.281       .  A
C1015      C1270   1.482       .  S
C1018      O1019   1.277       .  A
C1018      C1263   1.486       .  S
C1020      C1021   1.545       .  S
C1020      C1026   1.520       .  S
C1020      C1024   1.547       .  S
C1021      C1022   1.369       .  D
C1022      C1023   1.539       .  S
C1022      C1240   1.486       .  S
C1023      C1027   1.552       .  S
C1023      C1025   1.539       .  S
C1023      H1029   1.108       .  S
C1024      C1025   1.369       .  D
C1025      C1250   1.491       .  S
C1026      H1031   1.088       .  S
C1026      C1027   1.361       .  D
C1027      C1290   1.492       .  S
O1032     Zn1038   2.036   1_554  S
C1033      O1049   1.279       .  A
C1033      O1046   1.267       .  A
C1033      C1253   1.481       .  S
O1034      C1047   1.285       .  A
O1034     Cd1041   2.108   1_455  S
O1035      C1053   1.267       .  A
O1035     Cd1044   2.016       .  S
O1036      C1050   1.281       .  A
O1036     Cd1040   2.118       .  S
O1037      C1048   1.275       .  A
Zn1038     O1049   2.062       .  S
Zn1038     O1051   2.047       .  S
Zn1038     O1043   1.941       .  S
O1039      C1050   1.268       .  A
O1039     Cd1044   2.017       .  S
Cd1040     O1042   2.105   1_565  S
Cd1040     O1043   2.003       .  S
Cd1041     O1045   2.097   1_655  S
Cd1041     O1054   2.109       .  S
Cd1041     O1043   1.987       .  S
O1042      C1052   1.281   1_655  A
O1043     Cd1044   1.956       .  S
Cd1044     O1046   2.031       .  S
O1045      C1052   1.284   1_565  A
C1047      C1081   1.492       .  S
C1047      O1051   1.279   1_455  A
C1050      C1243   1.479       .  S
C1053      O1054   1.277       .  A
C1053      C1233   1.480       .  S
C1055      C1056   1.541       .  S
C1055      C1061   1.527       .  S
C1055      C1059   1.542       .  S
C1055      C1230   1.524       .  S
C1056      H1063   1.086   1_565  S
C1056      C1057   1.369       .  D
C1057      C1058   1.541       .  S
C1057      C1273   1.492       .  S
C1058      C1062   1.554       .  S
C1058      C1060   1.534       .  S
C1058      H1064   1.108       .  S
C1059      H1065   1.087       .  S
C1059      C1060   1.364       .  D
C1060      C1283   1.483       .  S
C1061      H1066   1.082       .  S
C1061      C1062   1.366       .  D
C1062      C1294   1.492       .  S
C1067      C1068   1.533       .  S
C1067      C1073   1.533       .  S
C1067      C1071   1.540       .  S
C1067      C1225   1.522       .  S
C1068      H1075   1.086       .  S
C1068      C1069   1.365       .  D
C1069      C1070   1.550       .  S
C1070      C1074   1.549       .  S
C1070      C1072   1.543       .  S
C1070      H1076   1.111       .  S
C1071      H1077   1.086       .  S
C1071      C1072   1.371       .  D
C1072      C1127   1.474       .  S
C1073      H1078   1.086       .  S
C1073      C1074   1.366       .  D
C1079      C1080   1.537       .  S
C1079      C1085   1.535       .  S
C1079      C1083   1.537       .  S
C1079      C1221   1.523       .  S
C1080      H1087   1.086       .  S
C1080      C1081   1.368       .  D
C1081      C1082   1.552       .  S
C1082      C1086   1.550       .  S
C1082      C1084   1.544       .  S
C1082      H1088   1.111       .  S
C1083      H1089   1.087       .  S
C1083      C1084   1.368       .  D
C1085      H1090   1.086       .  S
C1085      C1086   1.366       .  D
O1091      C1107   1.277       .  A
O1091     Zn1097   2.047       .  S
C1092      O1108   1.283       .  A
C1092      O1105   1.268       .  A
C1092      C1212   1.484       .  S
O1093      C1106   1.284       .  A
O1093     Cd1100   2.089       .  S
O1094      C1112   1.267       .  A
O1094     Cd1103   2.006       .  S
O1095      C1109   1.279       .  A
O1095     Cd1099   2.101       .  S
O1096      C1107   1.276       .  A
O1096     Cd1099   2.081       .  S
Zn1097     O1108   2.088       .  S
Zn1097     O1110   2.076       .  S
Zn1097     O1102   1.954       .  S
O1098      C1109   1.267       .  A
O1098     Cd1103   2.035       .  S
Cd1099     O1101   2.086       .  S
Cd1099     O1102   1.991       .  S
Cd1100     O1104   2.105       .  S
Cd1100     O1113   2.118       .  S
Cd1100     O1102   1.990       .  S
O1101      C1111   1.279       .  A
O1102     Cd1103   1.959       .  S
Cd1103     O1105   2.017       .  S
O1104      C1111   1.284       .  A
C1106      O1110   1.283       .  A
C1109      C1202   1.482       .  S
C1112      O1113   1.277       .  A
C1112      C1192   1.480       .  S
C1114      C1115   1.539       .  S
C1114      C1120   1.524       .  S
C1114      C1118   1.545       .  S
C1114      C1195   1.524       .  S
C1115      H1122   1.087       .  S
C1115      C1116   1.365       .  D
C1116      C1117   1.538       .  S
C1116      C1172   1.484       .  S
C1117      C1121   1.556       .  S
C1117      C1119   1.539       .  S
C1117      H1123   1.108       .  S
C1118      H1124   1.086       .  S
C1118      C1119   1.369       .  D
C1119      C1182   1.492       .  S
C1120      H1125   1.085       .  S
C1120      C1121   1.364       .  D
C1121      C1222   1.490       .  S
O1126      C1142   1.281       .  A
O1126     Zn1132   2.075       .  S
C1127      O1143   1.277       .  A
C1127      O1140   1.277       .  A
O1128      C1141   1.282       .  A
O1128     Cd1135   2.084       .  S
O1129      C1147   1.280       .  A
O1129     Cd1138   2.101   1_545  S
O1130      C1144   1.267       .  A
O1130     Cd1134   2.032       .  S
O1131      C1142   1.267       .  A
O1131     Cd1134   2.014       .  S
Zn1132     O1143   2.040       .  S
Zn1132     O1145   2.061       .  S
Zn1132     O1137   1.951       .  S
O1133      C1144   1.279       .  A
O1133     Cd1138   2.107       .  S
Cd1134     O1136   2.010       .  S
Cd1134     O1137   1.956       .  S
Cd1135     O1139   2.110       .  S
Cd1135     O1148   2.091       .  S
Cd1135     O1137   1.985       .  S
O1136      C1146   1.266       .  A
O1137     Cd1138   1.996       .  S
Cd1138     O1140   2.083       .  S
O1139      C1146   1.276       .  A
C1141      O1145   1.281       .  A
C1142      C1175   1.480       .  S
C1146      C1162   1.475       .  S
C1147      O1148   1.283   1_545  A
C1149      C1150   1.545       .  S
C1149      C1155   1.527       .  S
C1149      C1153   1.541       .  S
C1150      H1157   1.087       .  S
C1150      C1151   1.369       .  D
C1151      C1152   1.536       .  S
C1151      C1205   1.490       .  S
C1152      C1156   1.552       .  S
C1152      C1154   1.537       .  S
C1152      H1158   1.108       .  S
C1153      H1159   1.087       .  S
C1153      C1154   1.364       .  D
C1154      C1215   1.483       .  S
C1155      H1160   1.085       .  S
C1155      C1156   1.367       .  D
C1156      C1226   1.490       .  S
C1161      C1162   1.402       .  A
C1161      C1166   1.387       .  A
C1161      H1167   1.084       .  S
C1162      C1163   1.402       .  A
C1163      C1164   1.405       .  A
C1163      H1168   1.082       .  S
C1164      C1165   1.414       .  A
C1165      C1166   1.407       .  A
C1166      H1170   1.080       .  S
C1171      C1172   1.411       .  A
C1171      C1176   1.400       .  A
C1171      H1177   1.082       .  S
C1172      C1173   1.397       .  A
C1173      C1174   1.395       .  A
C1173      H1178   1.084       .  S
C1174      C1175   1.411       .  A
C1174      H1179   1.082       .  S
C1175      C1176   1.401       .  A
C1176      H1180   1.084       .  S
C1181      C1182   1.410       .  A
C1181      H1187   1.082       .  S
C1182      C1183   1.402       .  A
C1183      C1184   1.403       .  A
C1183      H1188   1.083       .  S
C1184      C1185   1.411       .  A
C1184      H1189   1.083       .  S
C1186      H1190   1.084       .  S
C1191      C1192   1.404       .  A
C1191      C1196   1.385       .  A
C1191      H1197   1.083       .  S
C1192      C1193   1.404       .  A
C1193      C1194   1.407       .  A
C1193      H1198   1.083       .  S
C1194      C1195   1.414       .  A
C1194      H1199   1.080       .  S
C1195      C1196   1.404       .  A
C1196      H1200   1.083       .  S
C1201      C1202   1.411       .  A
C1201      C1206   1.401       .  A
C1201      H1207   1.082       .  S
C1202      C1203   1.401       .  A
C1203      C1204   1.395       .  A
C1203      H1208   1.083       .  S
C1204      C1205   1.410       .  A
C1204      H1209   1.081       .  S
C1205      C1206   1.402       .  A
C1206      H1210   1.083       .  S
C1211      C1212   1.403       .  A
C1211      H1217   1.082       .  S
C1213      C1214   1.393   1_545  A
C1213      H1218   1.083       .  S
C1214      C1215   1.397       .  A
C1214      H1219   1.083       .  S
C1215      C1216   1.412       .  A
C1221      H1223   1.085       .  S
C1221      C1222   1.347       .  D
C1222      H1224   1.088       .  S
C1225      H1227   1.084       .  S
C1225      C1226   1.350       .  D
C1226      H1228   1.088       .  S
C1229      C1230   1.406       .  A
C1229      C1234   1.387       .  A
C1229      H1235   1.083       .  S
C1230      C1231   1.412       .  A
C1231      C1232   1.406       .  A
C1231      H1236   1.077       .  S
C1232      C1233   1.404       .  A
C1232      H1237   1.084       .  S
C1233      C1234   1.404       .  A
C1234      H1238   1.083       .  S
C1239      C1240   1.411       .  A
C1239      C1244   1.403       .  A
C1239      H1245   1.082   1_556  S
C1240      C1241   1.398       .  A
C1241      H1246   1.084       .  S
C1242      C1243   1.408       .  A
C1242      H1247   1.084       .  S
C1244      H1248   1.084       .  S
C1249      C1250   1.412       .  A
C1249      C1254   1.397       .  A
C1249      H1255   1.084       .  S
C1250      C1251   1.400       .  A
C1251      C1252   1.398       .  A
C1251      H1256   1.083       .  S
C1252      C1253   1.409       .  A
C1252      H1257   1.083       .  S
C1253      C1254   1.402       .  A
C1254      H1258   1.080       .  S
C1259      C1260   1.415       .  A
C1259      C1264   1.412       .  A
C1259      H1265   1.078       .  S
C1260      C1261   1.402       .  A
C1261      C1262   1.381       .  A
C1261      H1266   1.086       .  S
C1262      C1263   1.406       .  A
C1262      H1267   1.082       .  S
C1263      C1264   1.407       .  A
C1264      H1268   1.085       .  S
C1269      C1274   1.399       .  A
C1269      H1275   1.083       .  S
C1270      C1271   1.400       .  A
C1271      C1272   1.395       .  A
C1271      H1276   1.083       .  S
C1272      H1277   1.083       .  S
C1273      C1274   1.402       .  A
C1274      H1278   1.083       .  S
C1279      C1280   1.411       .  A
C1279      C1284   1.397       .  A
C1279      H1285   1.083       .  S
C1280      C1281   1.402       .  A
C1281      C1282   1.399       .  A
C1281      H1286   1.084       .  S
C1282      C1283   1.409       .  A
C1282      H1287   1.083       .  S
C1283      C1284   1.398       .  A
C1284      H1288   1.084       .  S
C1289      H1291   1.087       .  S
C1289      C1290   1.349       .  D
C1290      H1292   1.090       .  S
C1293      H1295   1.083       .  S
C1293      C1294   1.349       .  D
C1294      H1296   1.086       .  S
