geometry optimzed in LAMMPS
_audit_creation_date              2020-11-30 
_audit_creation_method            'lammps2cif' 
_symmetry_space_group_name_H-M    'P1' 
_symmetry_Int_Tables_number       1 
_symmetry_cell_setting            triclinic 
loop_ 
_symmetry_equiv_pos_as_xyz 
  x,y,z 
_cell_length_a                    60.97262806 
_cell_length_b                    61.96455202531239 
_cell_length_c                    30.444925406252413 
_cell_angle_alpha                 89.80219280387514 
_cell_angle_beta                  89.84490546715303 
_cell_angle_gamma                 122.49209630007184 
loop_ 
_atom_site_label 
_atom_site_type_symbol 
_atom_site_fract_x 
_atom_site_fract_y 
_atom_site_fract_z 
_atom_site_charge 
C1          C  0.02684724  0.42934397  0.69266381     0.86000
C2          C  0.02448026  0.42195258  0.64411074    -0.54200
C3          C  0.00457523  0.42134739  0.62235870     0.08900
C4          C  0.98740270  0.42644046  0.65216184     0.19900
C5          C  0.02671899  0.45407873  0.69352687    -0.54900
C6          C  0.00635059  0.45278435  0.67228965     0.09100
C7          C  0.99991487  0.40906705  0.71191306    -0.54500
C8          C  0.97925871  0.40758879  0.69113540     0.09600
H9          H  0.03781795  0.41813425  0.62763715     0.14100
H10         H  0.97078092  0.42513276  0.63491992    -0.00100
H11         H  0.04160475  0.47126609  0.71010150     0.14400
H12         H  0.99672414  0.39735668  0.74048236     0.14200
In13       In  0.65902222  0.15612282  0.86286705     1.36900
C14         C  0.61557217  0.15623376  0.86835048     0.77100
O15         O  0.64066816  0.13846467  0.79812496    -0.61300
O16         O  0.65517520  0.12024265  0.83641662    -0.52200
C17         C  0.70537233  0.19498473  0.83515746     0.69800
O18         O  0.68473666  0.19496790  0.83280728    -0.47100
C19         C  0.66585629  0.15404723  0.94940542     0.74500
O20         O  0.63639627  0.17471813  0.85220256    -0.59000
O21         O  0.65901687  0.13524425  0.92441388    -0.49000
O22         O  0.61738201  0.13811703  0.88258392    -0.55400
C23         C  0.64285672  0.11952472  0.80259664     0.84700
O24         O  0.70213764  0.17449237  0.85039538    -0.57300
O25         O  0.66961048  0.17369232  0.92969659    -0.60600
In26       In  0.84414946  0.33677674  0.84690485     1.36900
C27         C  0.84303927  0.37918653  0.84863119     0.77100
O28         O  0.82557961  0.32730012  0.91331939    -0.61300
O29         O  0.86453218  0.33714802  0.90960823    -0.52200
C30         C  0.80413742  0.29033947  0.82455491     0.69800
O31         O  0.80362129  0.31035627  0.82185764    -0.47100
C32         C  0.88259752  0.35170096  0.78847487     0.74500
O33         O  0.82611776  0.35909787  0.82915179    -0.59000
O34         O  0.88182865  0.34131191  0.82464725    -0.49000
O35         O  0.86047614  0.37737771  0.86709584    -0.55400
C36         C  0.84509869  0.33077783  0.93389265     0.84700
O37         O  0.82590716  0.29436374  0.83593456    -0.57300
O38         O  0.86293801  0.35284856  0.78121115    -0.60600
In39       In  0.53399485  0.68092896  0.87276841     1.36900
C40         C  0.48904776  0.63617562  0.86530764     0.77100
O41         O  0.54729944  0.67743250  0.80591105    -0.61300
O42         O  0.56123808  0.66765951  0.86122746    -0.52200
C43         C  0.54040424  0.72528907  0.84997613     0.69800
O44         O  0.51934924  0.70405286  0.84515830    -0.47100
C45         C  0.53812462  0.68875606  0.95927232     0.74500
O46         O  0.49300853  0.65649179  0.84784431    -0.59000
O47         O  0.55707106  0.69231405  0.93615875    -0.49000
O48         O  0.50800881  0.63910715  0.88707833    -0.55400
C49         C  0.55954840  0.66773044  0.81993214     0.84700
O50         O  0.55903023  0.72372037  0.86375608    -0.57300
O51         O  0.51760206  0.68107576  0.93786390    -0.60600
In52       In  0.52397069  0.84943376  0.86719525     1.36900
C53         C  0.47800713  0.84450145  0.87021710     0.77100
O54         O  0.51267556  0.83036219  0.93236904    -0.61300
O55         O  0.54738123  0.86710296  0.92898716    -0.52200
C56         C  0.53340196  0.81393556  0.84491129     0.69800
O57         O  0.51110236  0.81050994  0.84303292    -0.47100
C58         C  0.54626096  0.88764968  0.80883829     0.74500
O59         O  0.48197417  0.82956597  0.84856566    -0.59000
O60         O  0.55370691  0.89027597  0.84820746    -0.49000
O61         O  0.49764779  0.86180703  0.89037101    -0.55400
C62         C  0.53176638  0.84812278  0.95277850     0.84700
O63         O  0.55131011  0.83629700  0.85532590    -0.57300
O64         O  0.52866692  0.86510722  0.79895571    -0.60600
C65         C  0.56724431  0.97692499  0.70928608     0.86000
C66         C  0.58674018  0.00317081  0.73017917    -0.54200
C67         C  0.58698875  0.02340285  0.71123102     0.08900
C68         C  0.56727893  0.01552704  0.67368094     0.19900
C69         C  0.54116129  0.97520613  0.71285580    -0.54900
C70         C  0.54092143  0.99513676  0.69420504     0.09100
C71         C  0.57430601  0.98096582  0.66034620    -0.54500
C72         C  0.57385825  0.00073589  0.64148808     0.09600
H73         H  0.59832625  0.00590518  0.75892212     0.14100
H74         H  0.56730024  0.03179242  0.65826798    -0.00100
H75         H  0.52399174  0.95888206  0.72762409     0.14400
H76         H  0.57755969  0.96808433  0.64142449     0.14200
C77         C  0.57479392  0.60065509  0.70762172     0.86000
C78         C  0.57904589  0.60529547  0.65760205    -0.54200
C79         C  0.57841006  0.58584207  0.63533153     0.08900
C80         C  0.57407518  0.56363227  0.66521920     0.19900
C81         C  0.54903444  0.57440644  0.71164411    -0.54900
C82         C  0.54830586  0.55468625  0.68989782     0.09100
C83         C  0.59582775  0.59576339  0.72197021    -0.54500
C84         C  0.59516957  0.57605568  0.70095295     0.09600
H85         H  0.58163781  0.62179944  0.64030446     0.14100
H86         H  0.57488091  0.54887588  0.64633483    -0.00100
H87         H  0.53301521  0.57185070  0.73154340     0.14400
H88         H  0.60846200  0.60530684  0.74985038     0.14200
In89       In  0.15514395  0.65717480  0.84258471     1.36900
C90         C  0.15723223  0.61552746  0.84337644     0.77100
O91         O  0.17361940  0.66389695  0.90848070    -0.61300
O92         O  0.13635083  0.65856323  0.90605174    -0.52200
C93         C  0.19485236  0.70367251  0.82073511     0.69800
O94         O  0.19443376  0.68350253  0.81311156    -0.47100
C95         C  0.11698564  0.64188443  0.78408000     0.74500
O96         O  0.17447010  0.63624699  0.82552569    -0.59000
O97         O  0.11663074  0.65105899  0.82085830    -0.49000
O98         O  0.13884646  0.61625619  0.86091702    -0.55400
C99         C  0.15524456  0.66273002  0.92971994     0.84700
O100        O  0.17390136  0.69986341  0.83651379    -0.57300
O101        O  0.13757448  0.64250281  0.77639501    -0.60600
In102      In  0.33772634  0.83995117  0.85751626     1.36900
C103        C  0.38113642  0.84019259  0.86221940     0.77100
O104        O  0.35572147  0.85859276  0.79327564    -0.61300
O105        O  0.33845653  0.87432704  0.83115235    -0.52200
C106        C  0.29287475  0.79975634  0.83071704     0.69800
O107        O  0.31405087  0.80074118  0.82969474    -0.47100
C108        C  0.33100863  0.84117370  0.94411006     0.74500
O109        O  0.36086206  0.82254068  0.84391967    -0.59000
O110        O  0.34084885  0.86100984  0.92025665    -0.49000
O111        O  0.37896099  0.85760083  0.87869539    -0.55400
C112        C  0.35158055  0.87627210  0.79750218     0.84700
O113        O  0.29488286  0.82005074  0.84397242    -0.57300
O114        O  0.32376591  0.82103893  0.92294667    -0.60600
C115        C  0.42315726  0.01770974  0.70439025     0.86000
C116        C  0.44885754  0.01877725  0.70560226    -0.54200
C117        C  0.44837928  0.99930708  0.68438166     0.08900
C118        C  0.42191637  0.97996052  0.66368915     0.19900
C119        C  0.41708031  0.01629568  0.65476283    -0.54900
C120        C  0.41592983  0.99617922  0.63339335     0.09100
C121        C  0.40258145  0.99112417  0.72206240    -0.54500
C122        C  0.40203519  0.97130733  0.70157653     0.09600
H123        H  0.46605926  0.03364546  0.72249816     0.14100
H124        H  0.42154076  0.96388265  0.64697210    -0.00100
H125        H  0.41587147  0.03075741  0.63722774     0.14400
H126        H  0.39069777  0.98849393  0.75063360     0.14200
In127      In  0.34469024  0.49462186  0.85854806     1.36900
C128        C  0.38984497  0.53948086  0.85625458     0.77100
O129        O  0.34223991  0.50973842  0.92372336    -0.61300
O130        O  0.33198384  0.47131697  0.92148829    -0.52200
C131        C  0.29945680  0.48630249  0.82990156     0.69800
O132        O  0.32046586  0.50786680  0.82866459    -0.47100
C133        C  0.36011475  0.46931018  0.80957409     0.74500
O134        O  0.36983955  0.53573773  0.83676791    -0.59000
O135        O  0.35753717  0.46715038  0.85072765    -0.49000
O136        O  0.38655858  0.52010677  0.87627266    -0.55400
C137        C  0.33507093  0.48951644  0.94495396     0.84700
O138        O  0.30186308  0.46848865  0.84395909    -0.57300
O139        O  0.35302349  0.48327242  0.79298407    -0.60600
In140      In  0.16076741  0.48107863  0.84721733     1.36900
C141        C  0.16077039  0.52399487  0.84987368     0.77100
O142        O  0.14229567  0.47490294  0.78076024    -0.61300
O143        O  0.11970485  0.44922546  0.83176037    -0.52200
C144        C  0.20070361  0.47743386  0.82185007     0.69800
O145        O  0.20059890  0.49765703  0.81880748    -0.47100
C146        C  0.16216688  0.47351472  0.93323882     0.74500
O147        O  0.17792910  0.52238055  0.82961290    -0.59000
O148        O  0.14514124  0.45653612  0.90834175    -0.49000
O149        O  0.14393796  0.50365243  0.86914257    -0.55400
C150        C  0.12024684  0.45657078  0.79286749     0.84700
O151        O  0.17937300  0.45830463  0.83490108    -0.57300
O152        O  0.17837069  0.49406498  0.91376829    -0.60600
In153      In  0.47743402  0.32121091  0.84688968     1.36900
C154        C  0.52246019  0.36603260  0.84442412     0.77100
O155        O  0.47308511  0.33398143  0.78021286    -0.61300
O156        O  0.44471114  0.32622674  0.82847907    -0.52200
C157        C  0.46855579  0.27580472  0.82328797     0.69800
O158        O  0.49038977  0.29633645  0.81895403    -0.47100
C159        C  0.47091142  0.31611114  0.93426376     0.74500
O160        O  0.52004013  0.34597075  0.82899330    -0.59000
O161        O  0.45585571  0.31857596  0.90937871    -0.49000
O162        O  0.50215276  0.36258368  0.86224295    -0.55400
C163        C  0.45356524  0.33485476  0.79057992     0.84700
O164        O  0.45088420  0.27876171  0.83748716    -0.57300
O165        O  0.48868493  0.31556518  0.91405880    -0.60600
In166      In  0.47144621  0.14566234  0.86365356     1.36900
C167        C  0.51795706  0.15123651  0.86454702     0.77100
O168        O  0.48417258  0.16561589  0.92772246    -0.61300
O169        O  0.44832391  0.12981538  0.92652319    -0.52200
C170        C  0.46338546  0.18113622  0.83417317     0.69800
O171        O  0.48341069  0.18088353  0.82487120    -0.47100
C172        C  0.44589559  0.10473232  0.81235669     0.74500
O173        O  0.51411538  0.16730945  0.84683562    -0.59000
O174        O  0.44441423  0.10349639  0.85365999    -0.49000
O175        O  0.49789505  0.13240645  0.88149324    -0.55400
C176        C  0.46510144  0.14831763  0.94941005     0.84700
O177        O  0.44673426  0.16227479  0.85702766    -0.57300
O178        O  0.45878322  0.12717122  0.79727255    -0.60600
C179        C  0.43068453  0.40372667  0.70209855     0.86000
C180        C  0.42574793  0.40156025  0.65267351    -0.54200
C181        C  0.42508997  0.42137004  0.63465771     0.08900
C182        C  0.42900785  0.44174787  0.66845331     0.19900
C183        C  0.45566074  0.43039318  0.70871663    -0.54900
C184        C  0.45520695  0.45044290  0.69069299     0.09100
C185        C  0.40917178  0.40672007  0.72154580    -0.54500
C186        C  0.40857362  0.42700512  0.70524543     0.09600
H187        H  0.42393431  0.38603160  0.63317352     0.14100
H188        H  0.42789146  0.45714311  0.65262042    -0.00100
H189        H  0.47240639  0.43305944  0.72631279     0.14400
H190        H  0.39682229  0.39558708  0.74883459     0.14200
In191      In  0.84176924  0.51537193  0.84681649     1.36900
C192        C  0.84116192  0.47189985  0.84499064     0.77100
O193        O  0.86003983  0.52633604  0.77972824    -0.61300
O194        O  0.88366175  0.54448080  0.83549429    -0.52200
C195        C  0.80339100  0.52126014  0.82217758     0.69800
O196        O  0.80187456  0.50016840  0.82071587    -0.47100
C197        C  0.84105928  0.52252072  0.93267446     0.74500
O198        O  0.82480130  0.47465951  0.82473787    -0.59000
O199        O  0.85890328  0.53899213  0.90787878    -0.49000
O200        O  0.85753543  0.49135629  0.86619504    -0.55400
C201        C  0.88262697  0.54077749  0.79471623     0.84700
O202        O  0.82529947  0.53985049  0.83412918    -0.57300
O203        O  0.82341227  0.50295251  0.91310956    -0.60600
In204      In  0.66222450  0.51130884  0.85057904     1.36900
C205        C  0.61906672  0.46490369  0.84455045     0.77100
O206        O  0.66567128  0.49904869  0.91791757    -0.61300
O207        O  0.67100286  0.53557415  0.91155999    -0.52200
C208        C  0.70853661  0.51996060  0.82737297     0.69800
O209        O  0.68782757  0.49813867  0.82732783    -0.47100
C210        C  0.64553473  0.53446270  0.79871224     0.74500
O211        O  0.63945968  0.47119925  0.82331255    -0.59000
O212        O  0.64368277  0.53379244  0.83995409    -0.49000
O213        O  0.62103636  0.48227792  0.86875029    -0.55400
C214        C  0.66977181  0.51886137  0.93713861     0.84700
O215        O  0.70545468  0.53792763  0.83763425    -0.57300
O216        O  0.65790321  0.52502496  0.78392278    -0.60600
C217        C  0.97234391  0.56123179  0.69170997     0.86000
C218        C  0.97423350  0.56715990  0.64205915    -0.54200
C219        C  0.99543108  0.56939103  0.62170567     0.08900
C220        C  0.01272501  0.56525040  0.65290954     0.19900
C221        C  0.97307937  0.53693537  0.69424942    -0.54900
C222        C  0.99407332  0.53898642  0.67432200     0.09100
C223        C  0.99860911  0.58259435  0.70992878    -0.54500
C224        C  0.01991870  0.58482323  0.69025277     0.09600
H225        H  0.95998173  0.56860900  0.62355672     0.14100
H226        H  0.02967744  0.56665872  0.63630906    -0.00100
H227        H  0.95813931  0.51944977  0.71048129     0.14400
H228        H  0.99992513  0.59388516  0.73811228     0.14200
In229      In  0.66151987  0.15804678  0.22643056     1.36900
C230        C  0.61922548  0.15990390  0.22006875     0.77100
O231        O  0.67406414  0.17610861  0.16011407    -0.61300
O232        O  0.65951439  0.13659802  0.16453637    -0.52200
C233        C  0.70734190  0.19761605  0.25224506     0.69800
O234        O  0.68644191  0.19708571  0.25468687    -0.47100
C235        C  0.64590076  0.12163097  0.28771838     0.74500
O236        O  0.64006942  0.17760259  0.23696168    -0.59000
O237        O  0.65939296  0.12321732  0.25484487    -0.49000
O238        O  0.62031484  0.14139749  0.20581827    -0.55400
C239        C  0.66817031  0.15601831  0.13991299     0.84700
O240        O  0.70451544  0.17694279  0.23919457    -0.57300
O241        O  0.64189322  0.13948000  0.29020564    -0.60600
In242      In  0.84473224  0.33789062  0.21076430     1.36900
C243        C  0.84239433  0.37930776  0.20380431     0.77100
O244        O  0.86439451  0.35833113  0.27263947    -0.61300
O245        O  0.88108412  0.34106119  0.23765202    -0.52200
C246        C  0.80521473  0.29323727  0.24081997     0.69800
O247        O  0.80498409  0.31344050  0.23991458    -0.47100
C248        C  0.84595838  0.33027317  0.12451632     0.74500
O249        O  0.82568336  0.35944677  0.22447595    -0.59000
O250        O  0.86592659  0.33952356  0.14836398    -0.49000
O251        O  0.86016470  0.37770685  0.18597721    -0.55400
C252        C  0.88283836  0.35488175  0.26954385     0.84700
O253        O  0.82636329  0.29618187  0.22794625    -0.57300
O254        O  0.82546829  0.32393143  0.14543236    -0.60600
C255        C  0.60123201  0.57652507  0.37712205     0.86000
C256        C  0.60540855  0.58376300  0.42596413    -0.54200
C257        C  0.58565334  0.58485627  0.44504656     0.08900
C258        C  0.56324495  0.57856840  0.41334041     0.19900
C259        C  0.57436679  0.55129596  0.37556995    -0.54900
C260        C  0.55462858  0.55200273  0.39510470     0.09100
C261        C  0.59614350  0.59580680  0.35536803    -0.54500
C262        C  0.57641313  0.59695620  0.37397410     0.09600
H263        H  0.62185627  0.58634219  0.44445399     0.14100
H264        H  0.54719594  0.57941992  0.42874878    -0.00100
H265        H  0.57121637  0.53391710  0.36077316     0.14400
H266        H  0.60542575  0.60639817  0.32562794     0.14200
In267      In  0.52685113  0.68000374  0.23414041     1.36900
C268        C  0.48000672  0.63680948  0.23300357     0.77100
O269        O  0.51454260  0.68370085  0.16731261    -0.61300
O270        O  0.55324270  0.69305844  0.17481784    -0.52200
C271        C  0.53671644  0.72520053  0.26005884     0.69800
O272        O  0.51501538  0.70462074  0.26581248    -0.47100
C273        C  0.54839717  0.66100891  0.28388106     0.74500
O274        O  0.48410134  0.65659907  0.25252042    -0.59000
O275        O  0.55121865  0.66349312  0.24281705    -0.49000
O276        O  0.49967623  0.63965401  0.21360680    -0.55400
C277        C  0.53591046  0.69057923  0.14890511     0.84700
O278        O  0.55411704  0.72232503  0.24422631    -0.57300
O279        O  0.53680297  0.67087578  0.30029257    -0.60600
In280      In  0.52471118  0.85046983  0.22709987     1.36900
C281        C  0.47872561  0.84592126  0.22557692     0.77100
O282        O  0.53436662  0.86982645  0.29316683    -0.61300
O283        O  0.55099174  0.89263265  0.23590159    -0.52200
C284        C  0.53464504  0.81622492  0.25654678     0.69800
O285        O  0.51312419  0.81421938  0.26221987    -0.47100
C286        C  0.53280749  0.84822530  0.14195771     0.74500
O287        O  0.48162630  0.82898298  0.24247951    -0.59000
O288        O  0.54956952  0.86578365  0.16630404    -0.49000
O289        O  0.49909506  0.86433415  0.20852570    -0.55400
C290        C  0.54743857  0.89200575  0.27675643     0.84700
O291        O  0.55181639  0.83683208  0.23822159    -0.57300
O292        O  0.51239064  0.83153861  0.16175471    -0.60600
C293        C  0.56933278  0.97973995  0.38245429     0.86000
C294        C  0.57367410  0.98082346  0.43235237    -0.54200
C295        C  0.57497313  0.00112985  0.45242268     0.08900
C296        C  0.57191006  0.01877741  0.42095843     0.19900
C297        C  0.54440271  0.98031716  0.37884046    -0.54900
C298        C  0.54551049  0.00077406  0.39841249     0.09100
C299        C  0.59102925  0.00589527  0.36483893    -0.54500
C300        C  0.59251725  0.02642647  0.38453770     0.09600
H301        H  0.57286397  0.96587939  0.45197232     0.14100
H302        H  0.57376902  0.03552971  0.43755616    -0.00100
H303        H  0.52708792  0.96524985  0.36258118     0.14400
H304        H  0.60274341  0.00768961  0.33650325     0.14200
C305        C  0.02550614  0.43012877  0.35916590     0.86000
C306        C  0.99812099  0.40999398  0.34303639    -0.54200
C307        C  0.97847241  0.40917390  0.36607104     0.08900
C308        C  0.98802858  0.42944147  0.40284255     0.19900
C309        C  0.02579507  0.45510482  0.35613336    -0.54900
C310        C  0.00679055  0.45539429  0.37965766     0.09100
C311        C  0.02501321  0.42475161  0.40849310    -0.54500
C312        C  0.00593484  0.42496588  0.43169018     0.09600
H313        H  0.99378279  0.39921699  0.31311134     0.14100
H314        H  0.97209461  0.42865907  0.42185075    -0.00100
H315        H  0.03965399  0.47084705  0.33531353     0.14400
H316        H  0.03935164  0.42197993  0.42400923     0.14200
In317      In  0.84257122  0.51575816  0.20833959     1.36900
C318        C  0.84077128  0.47185444  0.20707690     0.77100
O319        O  0.82433656  0.50438553  0.14215514    -0.61300
O320        O  0.86129345  0.53883499  0.14677389    -0.52200
C321        C  0.80506444  0.52306541  0.23232756     0.69800
O322        O  0.80248325  0.50149057  0.23267949    -0.47100
C323        C  0.88150156  0.54061259  0.26472707     0.74500
O324        O  0.82432376  0.47447210  0.22752565    -0.59000
O325        O  0.88332129  0.54645462  0.22463215    -0.49000
O326        O  0.85826195  0.49190633  0.18802672    -0.55400
C327        C  0.84297442  0.52320590  0.12217716     0.84700
O328        O  0.82740785  0.54128696  0.22096364    -0.57300
O329        O  0.85899895  0.52301198  0.27660062    -0.60600
In330      In  0.66625379  0.51733457  0.21556661     1.36900
C331        C  0.62092520  0.47255521  0.22047005     0.77100
O332        O  0.65810544  0.52385537  0.28400798    -0.61300
O333        O  0.66338756  0.55088311  0.23566984    -0.52200
C334        C  0.71261393  0.52571035  0.23515578     0.69800
O335        O  0.69157617  0.50466942  0.24202431    -0.47100
C336        C  0.67022300  0.52083007  0.12801469     0.74500
O337        O  0.64172666  0.47583680  0.23562771    -0.59000
O338        O  0.66603606  0.53539720  0.15051867    -0.49000
O339        O  0.62345912  0.49235441  0.20338437    -0.55400
C340        C  0.65761413  0.54342775  0.27508755     0.84700
O341        O  0.70982316  0.54304503  0.21984278    -0.57300
O342        O  0.67281366  0.50531617  0.15067712    -0.60600
C343        C  0.97401405  0.56720134  0.36309935     0.86000
C344        C  0.00043634  0.58806563  0.34388640    -0.54200
C345        C  0.02140009  0.58857216  0.36082726     0.08900
C346        C  0.01404028  0.56876689  0.39821186     0.19900
C347        C  0.97403726  0.54249913  0.35766606    -0.54900
C348        C  0.99435625  0.54275692  0.37718313     0.09100
C349        C  0.97680008  0.57249950  0.41254749    -0.54500
C350        C  0.99747279  0.57308680  0.43142606     0.09600
H351        H  0.00307346  0.60071917  0.31712944     0.14100
H352        H  0.03105854  0.56963611  0.41311912    -0.00100
H353        H  0.95945493  0.52659904  0.33840035     0.14400
H354        H  0.96275547  0.57435395  0.43139973     0.14200
In355      In  0.33988445  0.49193183  0.22178083     1.36900
C356        C  0.38304454  0.53816147  0.22684342     0.77100
O357        O  0.34590097  0.48053524  0.28882911    -0.61300
O358        O  0.35727120  0.46849098  0.23304237    -0.52200
C359        C  0.29233446  0.47892230  0.24497257     0.69800
O360        O  0.31213943  0.50114624  0.24984242    -0.47100
C361        C  0.33248187  0.48673075  0.13529952     0.74500
O362        O  0.36236180  0.53267616  0.24638691    -0.59000
O363        O  0.33343903  0.47034709  0.15863004    -0.49000
O364        O  0.38100575  0.52031764  0.20393838    -0.55400
C365        C  0.35708259  0.46983679  0.27434219     0.84700
O366        O  0.29718152  0.46279276  0.23069320    -0.57300
O367        O  0.33458994  0.50512826  0.15674252    -0.60600
In368      In  0.16029754  0.48134009  0.20773212     1.36900
C369        C  0.16173280  0.52491692  0.20527105     0.77100
O370        O  0.18072481  0.49295443  0.14304179    -0.61300
O371        O  0.14448299  0.45761058  0.14625756    -0.52200
C372        C  0.19707253  0.47500098  0.23896875     0.69800
O373        O  0.19998742  0.49655175  0.23388444    -0.47100
C374        C  0.11989931  0.45851246  0.26237515     0.74500
O375        O  0.17739462  0.52199588  0.22749512    -0.59000
O376        O  0.11916704  0.44982561  0.22454271    -0.49000
O377        O  0.14578139  0.50558775  0.18310998    -0.55400
C378        C  0.16347162  0.47358967  0.12260474     0.84700
O379        O  0.17472135  0.45629799  0.22945905    -0.57300
O380        O  0.14176930  0.47753583  0.27268555    -0.60600
In381      In  0.47658110  0.33074360  0.21092358     1.36900
C382        C  0.52198104  0.37540413  0.21575424     0.77100
O383        O  0.49078547  0.32813358  0.14466477    -0.61300
O384        O  0.45295842  0.32158327  0.14855623    -0.52200
C385        C  0.47037289  0.28631413  0.23478679     0.69800
O386        O  0.49103964  0.30768974  0.24096334    -0.47100
C387        C  0.45065837  0.34412562  0.26311109     0.74500
O388        O  0.51783049  0.35557900  0.23537248    -0.59000
O389        O  0.44871762  0.34341650  0.22189503    -0.49000
O390        O  0.50307397  0.37195006  0.19329534    -0.55400
C391        C  0.47060224  0.32312895  0.12429374     0.84700
O392        O  0.45217512  0.28777080  0.21848044    -0.57300
O393        O  0.46365820  0.33538016  0.27780789    -0.60600
In394      In  0.47869406  0.15623400  0.22429142     1.36900
C395        C  0.52301485  0.15760431  0.21935393     0.77100
O396        O  0.47395196  0.14070563  0.29279256    -0.61300
O397        O  0.44619771  0.11705943  0.24519440    -0.52200
C398        C  0.47263798  0.19455232  0.24473777     0.69800
O399        O  0.49337248  0.19527118  0.25186569    -0.47100
C400        C  0.47024665  0.15466952  0.13858951     0.74500
O401        O  0.52156900  0.17557706  0.23541128    -0.59000
O402        O  0.45348025  0.13803984  0.16469903    -0.49000
O403        O  0.50163953  0.13895164  0.20589677    -0.55400
C404        C  0.45433684  0.11901245  0.28390658     0.84700
O405        O  0.45445913  0.17345460  0.23003292    -0.57300
O406        O  0.49083984  0.17180484  0.15677473    -0.60600
C407        C  0.43124949  0.40906105  0.37314330     0.86000
C408        C  0.45721581  0.43513304  0.37178089    -0.54200
C409        C  0.45707771  0.45429762  0.39347796     0.08900
C410        C  0.43064517  0.44592883  0.41404234     0.19900
C411        C  0.42499477  0.40392523  0.42270088    -0.54900
C412        C  0.42467568  0.42322182  0.44423423     0.09100
C413        C  0.41086220  0.41415603  0.35614766    -0.54500
C414        C  0.41114609  0.43397141  0.37584888     0.09600
H415        H  0.47452866  0.43802026  0.35566446     0.14100
H416        H  0.43040459  0.46162414  0.43107356    -0.00100
H417        H  0.42221315  0.38740119  0.44019216     0.14400
H418        H  0.39867936  0.40438722  0.32790807     0.14200
In419      In  0.15926987  0.66004332  0.20710086     1.36900
C420        C  0.15935820  0.61714416  0.20712433     0.77100
O421        O  0.13994968  0.64939764  0.27474676    -0.61300
O422        O  0.11823184  0.64808560  0.21986210    -0.52200
C423        C  0.19909008  0.70633735  0.23008670     0.69800
O424        O  0.19940148  0.68625994  0.23364356    -0.47100
C425        C  0.15994048  0.66677525  0.12019433     0.74500
O426        O  0.17557549  0.63668204  0.22862297    -0.59000
O427        O  0.14336285  0.66689251  0.14501196    -0.49000
O428        O  0.14316043  0.61973248  0.18609873    -0.55400
C429        C  0.11804015  0.64336194  0.26016825     0.84700
O430        O  0.17774036  0.70250508  0.21654899    -0.57300
O431        O  0.17638553  0.66409915  0.14029233    -0.60600
In432      In  0.34031495  0.84669534  0.22213570     1.36900
C433        C  0.38410898  0.84677464  0.22436516     0.77100
O434        O  0.33229602  0.82749166  0.15644593    -0.61300
O435        O  0.33937602  0.86478311  0.15796761    -0.52200
C436        C  0.29331591  0.80664654  0.24158286     0.69800
O437        O  0.31404523  0.80775754  0.25073560    -0.47100
C438        C  0.35313945  0.88592335  0.27569841     0.74500
O439        O  0.36312151  0.82913264  0.24130489    -0.59000
O440        O  0.34797255  0.88557582  0.23556835    -0.49000
O441        O  0.38250526  0.86427943  0.20678557    -0.55400
C442        C  0.33439183  0.84586052  0.13473020     0.84700
O443        O  0.29680248  0.82730352  0.22668981    -0.57300
O444        O  0.34931618  0.86502590  0.28992527    -0.60600
C445        C  0.42907163  0.02815601  0.37972850     0.86000
C446        C  0.42106838  0.02179219  0.42806586    -0.54200
C447        C  0.42073230  0.00085471  0.44391927     0.08900
C448        C  0.42821411  0.98782289  0.40882181     0.19900
C449        C  0.45535901  0.03014434  0.37616216    -0.54900
C450        C  0.45504135  0.00938968  0.39187793     0.09100
C451        C  0.40999210  0.00318777  0.35550522    -0.54500
C452        C  0.40977470  0.98220585  0.36977453     0.09600
H453        H  0.41673978  0.03341924  0.44839409     0.14100
H454        H  0.42789592  0.97067338  0.42043033    -0.00100
H455        H  0.47284508  0.04663412  0.36241649     0.14400
H456        H  0.39790591  0.00167683  0.32838589     0.14200
C457        C  0.37942698  0.93298761  0.27832356    -0.26800
C458        C  0.36533693  0.90988820  0.30169153    -0.14900
C459        C  0.36553617  0.91048444  0.34816567     0.35800
C460        C  0.38038460  0.93423021  0.36995618    -0.26200
C461        C  0.39479193  0.95727072  0.34620907    -0.15500
C462        C  0.39431090  0.95639632  0.29977570     0.36900
N463        N  0.40969975  0.97913712  0.27388653    -0.89700
H464        H  0.37988200  0.93290925  0.24272820     0.18000
H465        H  0.38043633  0.93480251  0.40552289     0.18000
N466        N  0.35061123  0.88716608  0.37299406    -0.88700
H467        H  0.39722327  0.98113701  0.25322073     0.35300
H468        H  0.42227316  0.97671146  0.25413193     0.40400
H469        H  0.33099178  0.87953648  0.36608880     0.40100
H470        H  0.35287776  0.89096345  0.40668419     0.34900
C471        C  0.22275087  0.75361905  0.22083407    -0.26800
C472        C  0.22215929  0.73234769  0.23864060    -0.14900
C473        C  0.24426067  0.73647942  0.26167216     0.35800
C474        C  0.26631834  0.76121415  0.26492792    -0.26200
C475        C  0.26754293  0.78225153  0.24470435    -0.15500
C476        C  0.24511767  0.77830731  0.22306427     0.36900
N477        N  0.24465671  0.79860266  0.20134911    -0.89700
H478        H  0.20609291  0.75093548  0.20304867     0.18000
H479        H  0.28316352  0.76373441  0.28182060     0.14400
N480        N  0.24524148  0.71604475  0.28160859    -0.88700
H481        H  0.25874632  0.80615059  0.17646879     0.35300
H482        H  0.24890050  0.81283916  0.22427193     0.40400
H483        H  0.24403960  0.70369943  0.25711658     0.40100
H484        H  0.22949104  0.70612114  0.30324083     0.34900
C485        C  0.41421389  0.05173549  0.33017036    -0.26800
C486        C  0.43098281  0.05259734  0.36300826    -0.14900
C487        C  0.45161840  0.07704041  0.37681475     0.35800
C488        C  0.45781380  0.09891355  0.35225666    -0.26200
C489        C  0.44342683  0.09711074  0.31500403    -0.15500
C490        C  0.42054257  0.07353457  0.30563059     0.36900
N491        N  0.40400788  0.07136250  0.27029781    -0.89700
H492        H  0.39639215  0.03422371  0.32185498     0.18000
H493        H  0.47490170  0.11721045  0.36082600     0.18000
N494        N  0.46732402  0.07942128  0.41389631    -0.88700
H495        H  0.38545537  0.06446891  0.28317547     0.35300
H496        H  0.40263050  0.05782045  0.24816512     0.40400
H497        H  0.45571294  0.07460997  0.44200251     0.40100
H498        H  0.48259742  0.09843511  0.41793792     0.34900
C499        C  0.44035045  0.37720115  0.27259971    -0.26800
C500        C  0.44116880  0.35697378  0.29111698    -0.14900
C501        C  0.43682305  0.35222196  0.33666120     0.35800
C502        C  0.43207361  0.36809133  0.36280121    -0.26200
C503        C  0.43284278  0.38948304  0.34470336    -0.15500
C504        C  0.43711858  0.39379811  0.29875273     0.36900
N505        N  0.43937005  0.41580882  0.27848428    -0.89700
H506        H  0.44421620  0.38143756  0.23782098     0.18000
H507        H  0.42908964  0.36414955  0.39752740     0.18000
N508        N  0.43809342  0.33183408  0.35646080    -0.88700
H509        H  0.42537138  0.40956161  0.25380064     0.35300
H510        H  0.45773523  0.42667140  0.26376645     0.40400
H511        H  0.42286949  0.31460745  0.34366866     0.40100
H512        H  0.43496970  0.33111076  0.39035521     0.34900
C513        C  0.48968510  0.26247410  0.26371723    -0.26800
C514        C  0.46858519  0.26181562  0.24367489    -0.14900
C515        C  0.44743138  0.23811287  0.22905859     0.35800
C516        C  0.44849197  0.21607207  0.23215871    -0.26200
C517        C  0.47032881  0.21708519  0.24965258    -0.15500
C518        C  0.49067212  0.24040659  0.26703526     0.36900
N519        N  0.51264126  0.24197331  0.28735367    -0.89700
H520        H  0.50596681  0.28039364  0.27580299     0.18000
H521        H  0.43254793  0.19829935  0.21896363     0.18000
N522        N  0.42519983  0.23638632  0.20956055    -0.88700
H523        H  0.51399831  0.24848222  0.31948038     0.35300
H524        H  0.52937758  0.25557933  0.27025443     0.40400
H525        H  0.40876904  0.22317475  0.22774616     0.40100
H526        H  0.42315990  0.22927393  0.17773156     0.34900
C527        C  0.17802889  0.59198322  0.23148856    -0.26800
C528        C  0.15951878  0.59332046  0.20641105    -0.14900
C529        C  0.14172811  0.57197709  0.18095484     0.35800
C530        C  0.14295434  0.55001528  0.18082640    -0.26200
C531        C  0.16158877  0.54875221  0.20572941    -0.15500
C532        C  0.17921495  0.57001057  0.23143153     0.36900
N533        N  0.19837219  0.56947642  0.25769252    -0.89700
H534        H  0.19176606  0.60810599  0.25137736     0.18000
H535        H  0.12911591  0.53383070  0.16114388     0.18000
N536        N  0.12232801  0.57238130  0.15517248    -0.88700
H537        H  0.19552750  0.57256024  0.29039031     0.35300
H538        H  0.21671650  0.58461848  0.24768561     0.40400
H539        H  0.10407935  0.55733884  0.16573231     0.40100
H540        H  0.12482071  0.56905695  0.12240858     0.34900
C541        C  0.39278942  0.46278446  0.28504594    -0.26800
C542        C  0.37082531  0.46141438  0.30267840    -0.14900
C543        C  0.36344860  0.45320634  0.34669682     0.35800
C544        C  0.37770379  0.44552537  0.37142736    -0.26200
C545        C  0.39919253  0.44628337  0.35303262    -0.15500
C546        C  0.40720598  0.45565218  0.30983084     0.36900
N547        N  0.42971767  0.45733050  0.29095088    -0.89700
H548        H  0.39893200  0.46971562  0.25173876     0.18000
H549        H  0.37153587  0.43810715  0.40447303     0.18000
N550        N  0.34088302  0.45146932  0.36538379    -0.88700
H551        H  0.43269988  0.46405358  0.25859078     0.35300
H552        H  0.44594067  0.47088659  0.30877637     0.40400
H553        H  0.34524640  0.47010600  0.36952204     0.40100
H554        H  0.33712229  0.44335951  0.39683636     0.34900
C555        C  0.26299960  0.49085370  0.27728052    -0.26800
C556        C  0.26574541  0.47333085  0.25255821    -0.14900
C557        C  0.24368743  0.45328264  0.23073250     0.35800
C558        C  0.22046185  0.45277110  0.23067808    -0.26200
C559        C  0.21888413  0.47221705  0.25082604    -0.15500
C560        C  0.23995388  0.49060185  0.27649817     0.36900
N561        N  0.23867042  0.50937082  0.30176518    -0.89700
H562        H  0.27939792  0.50585060  0.29537667     0.18000
H563        H  0.20428264  0.43829740  0.21148438     0.18000
N564        N  0.24464732  0.43426282  0.20575352    -0.88700
H565        H  0.22219536  0.49995534  0.32198857     0.35300
H566        H  0.23709542  0.52177458  0.28064612     0.40400
H567        H  0.25016802  0.42455097  0.22655229     0.40100
H568        H  0.25843167  0.44330116  0.18064159     0.34900
C569        C  0.04659872  0.60251484  0.29082506    -0.26800
C570        C  0.04696198  0.60277582  0.33700443    -0.14900
C571        C  0.07116315  0.61693103  0.35848413     0.35800
C572        C  0.09436941  0.63025338  0.33316967    -0.26200
C573        C  0.09367770  0.63028576  0.28685638    -0.15500
C574        C  0.06935810  0.61627448  0.26586982     0.36900
N575        N  0.06754348  0.61538920  0.21890170    -0.89700
H576        H  0.02834355  0.59132336  0.27351056     0.18000
H577        H  0.11297287  0.64086198  0.34960227     0.18000
N578        N  0.07209343  0.61809832  0.40560838    -0.88700
H579        H  0.05596085  0.62234292  0.20952333     0.35300
H580        H  0.05823254  0.59627805  0.20917661     0.40400
H581        H  0.06258302  0.62714432  0.41572448     0.40100
H582        H  0.09130948  0.62952378  0.41626178     0.34900
C583        C  0.57392260  0.44620470  0.20264600    -0.26800
C584        C  0.59562182  0.44764559  0.22159006    -0.14900
C585        C  0.59278237  0.42525425  0.23966125     0.35800
C586        C  0.56847320  0.40207000  0.23847084    -0.26200
C587        C  0.54692216  0.40054707  0.21854576    -0.15500
C588        C  0.54972823  0.42300311  0.20060550     0.36900
N589        N  0.52817801  0.42225682  0.17981907    -0.89700
H590        H  0.57586707  0.46326635  0.18872275     0.18000
H591        H  0.56667562  0.38504236  0.25228314     0.18000
N592        N  0.61455519  0.42574364  0.25844742    -0.88700
H593        H  0.53389370  0.44011451  0.16645532     0.35300
H594        H  0.51444189  0.41844993  0.20424074     0.40400
H595        H  0.61727949  0.41275317  0.24131240     0.40100
H596        H  0.60995029  0.41945251  0.29102623     0.34900
C597        C  0.90223555  0.53843684  0.33330222    -0.26800
C598        C  0.90425807  0.55162689  0.29439787    -0.14900
C599        C  0.92875024  0.57325812  0.28265441     0.35800
C600        C  0.95070231  0.57963113  0.30734994    -0.26200
C601        C  0.94942530  0.56431771  0.34294099    -0.15500
C602        C  0.92443438  0.54439459  0.35731007     0.36900
N603        N  0.92155961  0.52935610  0.39530075    -0.89700
H604        H  0.88352976  0.52224753  0.34373590     0.18000
H605        H  0.96871101  0.59619605  0.29645427     0.18000
N606        N  0.93228265  0.58899392  0.24532506    -0.88700
H607        H  0.91228600  0.51021242  0.38579195     0.35300
H608        H  0.90943628  0.53088315  0.41769819     0.40400
H609        H  0.91917592  0.59491447  0.24763164     0.40100
H610        H  0.92879138  0.57843119  0.21665885     0.34900
C611        C  0.78349082  0.54716757  0.22177815    -0.26800
C612        C  0.78316709  0.52639768  0.24124131    -0.14900
C613        C  0.76090282  0.50814357  0.26538778     0.35800
C614        C  0.73876912  0.50947198  0.26541075    -0.26200
C615        C  0.73816176  0.52874309  0.24218646    -0.15500
C616        C  0.76125475  0.54866640  0.22224319     0.36900
N617        N  0.76175971  0.56960486  0.20068371    -0.89700
H618        H  0.80070234  0.56161210  0.20417608     0.18000
H619        H  0.72150305  0.49460171  0.28235055     0.18000
N620        N  0.76004557  0.48801446  0.29021046    -0.88700
H621        H  0.78000258  0.58212825  0.18654634     0.35300
H622        H  0.75922265  0.58002530  0.22489379     0.40400
H623        H  0.77597281  0.49610040  0.31146453     0.40100
H624        H  0.76108071  0.47546585  0.26885678     0.34900
C625        C  0.97971178  0.47458534  0.38810058    -0.26800
C626        C  0.00429712  0.47829190  0.38129047    -0.14900
C627        C  0.02598455  0.50381606  0.37660182     0.35800
C628        C  0.02199884  0.52418948  0.37367417    -0.26200
C629        C  0.99714258  0.52016405  0.37841211    -0.15500
C630        C  0.97597534  0.49496977  0.38776528     0.36900
N631        N  0.95073712  0.48940750  0.40006078    -0.89700
H632        H  0.96288318  0.45566718  0.39398066     0.18000
H633        H  0.03856799  0.54343379  0.36826647     0.18000
N634        N  0.05206804  0.50924286  0.37660958    -0.88700
H635        H  0.94134205  0.49078686  0.37269622     0.35300
H636        H  0.95268982  0.50223018  0.42431809     0.40400
H637        H  0.05521038  0.50369529  0.40725778     0.40100
H638        H  0.06567052  0.52887846  0.37352212     0.34900
C639        C  0.07385920  0.45408445  0.35094232    -0.26800
C640        C  0.04970990  0.43333063  0.33654989    -0.14900
C641        C  0.04987340  0.41805880  0.30188192     0.35800
C642        C  0.07321608  0.42630275  0.27889599    -0.26200
C643        C  0.09668336  0.44843491  0.29110702    -0.15500
C644        C  0.09706865  0.46175722  0.32880225     0.36900
N645        N  0.12078465  0.48376461  0.34396752    -0.89700
H646        H  0.07458403  0.46534740  0.37873699     0.18000
H647        H  0.07302240  0.41540260  0.25098288     0.18000
N648        N  0.02698997  0.39407983  0.29041214    -0.88700
H649        H  0.12372163  0.48031885  0.37639741     0.35300
H650        H  0.11854911  0.49935946  0.34387491     0.40400
H651        H  0.02222280  0.38172431  0.31722625     0.40100
H652        H  0.03057222  0.38566588  0.26392262     0.34900
C653        C  0.50673664  0.99572007  0.35993547    -0.26800
C654        C  0.52306642  0.00446981  0.39698135    -0.14900
C655        C  0.51722911  0.01595554  0.43150931     0.35800
C656        C  0.49545173  0.01815036  0.42799840    -0.26200
C657        C  0.47859509  0.00805881  0.39209563    -0.15500
C658        C  0.48466231  0.99721176  0.35712467     0.36900
N659        N  0.46900223  0.98751882  0.31824922    -0.89700
H660        H  0.51114269  0.98767330  0.33233673     0.18000
H661        H  0.49117619  0.02725242  0.45402687     0.18000
N662        N  0.53267315  0.02461578  0.47065025    -0.88700
H663        H  0.48059478  0.99847253  0.29154832     0.35300
H664        H  0.45344332  0.98995293  0.31923043     0.40400
H665        H  0.52998730  0.00849416  0.48688992     0.40100
H666        H  0.52604986  0.03305409  0.49214340     0.34900
C667        C  0.40718975  0.82403294  0.23559067    -0.26800
C668        C  0.40841667  0.84673817  0.22474519    -0.14900
C669        C  0.43281739  0.86899573  0.21482882     0.35800
C670        C  0.45520198  0.86793730  0.21567806    -0.26200
C671        C  0.45403797  0.84525184  0.22613377    -0.15500
C672        C  0.42972535  0.82304398  0.23668449     0.36900
N673        N  0.42782113  0.79953362  0.24786659    -0.89700
H674        H  0.38853105  0.80692721  0.24328406     0.18000
H675        H  0.47380619  0.88513725  0.20808413     0.18000
N676        N  0.43502598  0.89278543  0.20475373    -0.88700
H677        H  0.40837590  0.78475872  0.25223712     0.35300
H678        H  0.43671455  0.80212080  0.27837100     0.40400
H679        H  0.42724689  0.89105705  0.17346169     0.40100
H680        H  0.45454726  0.90772791  0.20256038     0.34900
C681        C  0.55926520  0.95585627  0.31153596    -0.26800
C682        C  0.56716602  0.95764242  0.35556906    -0.14900
C683        C  0.57219130  0.93900928  0.37123381     0.35800
C684        C  0.56541050  0.91756916  0.34508416    -0.26200
C685        C  0.55594712  0.91533899  0.30245244    -0.15500
C686        C  0.55338681  0.93496479  0.28511177     0.36900
N687        N  0.54366675  0.93307975  0.24134937    -0.89700
H688        H  0.55661120  0.97052076  0.29811483     0.18000
H689        H  0.56812282  0.90277016  0.35761115     0.18000
N690        N  0.58527582  0.94218648  0.41205005    -0.88700
H691        H  0.54326377  0.94929216  0.23338563     0.35300
H692        H  0.52436569  0.91757737  0.24093308     0.40400
H693        H  0.60405675  0.95844507  0.40888289     0.40100
H694        H  0.58740920  0.92681140  0.41823289     0.34900
C695        C  0.40778285  0.58486402  0.24404876    -0.26800
C696        C  0.40783038  0.56326271  0.23036801    -0.14900
C697        C  0.43170563  0.56583005  0.21992100     0.35800
C698        C  0.45465702  0.59012081  0.22033201    -0.26200
C699        C  0.45470447  0.61190867  0.23298787    -0.15500
C700        C  0.43102914  0.60917802  0.24587531     0.36900
N701        N  0.43056607  0.63093577  0.26062962    -0.89700
H702        H  0.38952752  0.58283572  0.25282641     0.18000
H703        H  0.47281150  0.59190566  0.21165446     0.18000
N704        N  0.43272104  0.54370356  0.20989379    -0.88700
H705        H  0.41174638  0.62545756  0.27006002     0.35300
H706        H  0.43558228  0.64338860  0.23388468     0.40400
H707        H  0.42731652  0.53241621  0.23834515     0.40100
H708        H  0.45172525  0.54895937  0.20244050     0.34900
C709        C  0.55946522  0.79513872  0.24726936    -0.26800
C710        C  0.53857008  0.79513881  0.26689271    -0.14900
C711        C  0.51976037  0.77334410  0.29086585     0.35800
C712        C  0.52088723  0.75131947  0.29109417    -0.26200
C713        C  0.54032539  0.75048689  0.26791985    -0.15500
C714        C  0.56044554  0.77300141  0.24739135     0.36900
N715        N  0.58099714  0.77309896  0.22427519    -0.89700
H716        H  0.57419408  0.81179332  0.22911314     0.18000
H717        H  0.50567335  0.73425033  0.30768254     0.18000
N718        N  0.49887527  0.77317832  0.31323030    -0.88700
H719        H  0.59867251  0.78737174  0.23776664     0.35300
H720        H  0.58061879  0.77795266  0.19147764     0.40400
H721        H  0.50706355  0.78652004  0.33860437     0.40100
H722        H  0.48624120  0.75538891  0.32802105     0.34900
C723        C  0.52702755  0.50629292  0.41692487    -0.26800
C724        C  0.52840626  0.52820814  0.40052787    -0.14900
C725        C  0.50542216  0.52627830  0.38614702     0.35800
C726        C  0.48183196  0.50209848  0.38607207    -0.26200
C727        C  0.48107127  0.47997989  0.39941864    -0.15500
C728        C  0.50366131  0.48227971  0.41666171     0.36900
N729        N  0.50280947  0.46009607  0.43336491    -0.89700
H730        H  0.54452443  0.50786122  0.42905173     0.18000
H731        H  0.46429469  0.50031986  0.37368062     0.18000
N732        N  0.50627976  0.54853983  0.37005938    -0.88700
H733        H  0.52108524  0.46501140  0.44475400     0.35300
H734        H  0.49029912  0.45334351  0.46055747     0.40400
H735        H  0.48772770  0.54385343  0.36081457     0.40100
H736        H  0.51767649  0.55464489  0.34153932     0.34900
C737        C  0.56677826  0.63155498  0.37616938    -0.26800
C738        C  0.56708366  0.61219045  0.35292571    -0.14900
C739        C  0.56100449  0.60904365  0.30788038     0.35800
C740        C  0.55581500  0.62575108  0.28641081    -0.26200
C741        C  0.55579653  0.64540111  0.30908768    -0.15500
C742        C  0.56105588  0.64812028  0.35475233     0.36900
N743        N  0.56148041  0.66784588  0.37983568    -0.89700
H744        H  0.57166503  0.63422847  0.41074948     0.18000
H745        H  0.55117008  0.62287227  0.25173230     0.18000
N746        N  0.55989270  0.58864874  0.28377970    -0.88700
H747        H  0.54292431  0.66489081  0.37941401     0.35300
H748        H  0.57459552  0.68549076  0.36502702     0.40400
H749        H  0.57327327  0.59667848  0.25787634     0.40100
H750        H  0.54130751  0.57741181  0.27032784     0.34900
C751        C  0.62204694  0.55100807  0.36997034    -0.26800
C752        C  0.62233023  0.57299666  0.35712302    -0.14900
C753        C  0.64047784  0.58884256  0.32402565     0.35800
C754        C  0.65269995  0.57928540  0.29838310    -0.26200
C755        C  0.64889238  0.55527280  0.30727726    -0.15500
C756        C  0.63466571  0.54181829  0.34515975     0.36900
N757        N  0.63149524  0.51792537  0.35719499    -0.89700
H758        H  0.61004171  0.53956778  0.39748692     0.18000
H759        H  0.66502777  0.59052627  0.27101784     0.18000
N760        N  0.64744320  0.61474741  0.31760158    -0.88700
H761        H  0.61163516  0.50384552  0.35711369     0.35300
H762        H  0.63831526  0.51953096  0.38925975     0.40400
H763        H  0.65605384  0.62466398  0.34654604     0.40100
H764        H  0.66147271  0.62376422  0.29272661     0.34900
C765        C  0.82263483  0.40346195  0.22756230    -0.26800
C766        C  0.84140332  0.40264908  0.20209434    -0.14900
C767        C  0.85917904  0.42431099  0.17694431     0.35800
C768        C  0.85829338  0.44643517  0.17870270    -0.26200
C769        C  0.83993691  0.44750716  0.20509366    -0.15500
C770        C  0.82159957  0.42554015  0.22928781     0.36900
N771        N  0.80226993  0.42571890  0.25614581    -0.89700
H772        H  0.80878621  0.38683606  0.24673263     0.18000
H773        H  0.87227737  0.46296200  0.15944380     0.18000
N774        N  0.87821121  0.42405911  0.14962399    -0.88700
H775        H  0.79138919  0.40856382  0.27375226     0.35300
H776        H  0.78924537  0.42655178  0.23504478     0.40400
H777        H  0.89663053  0.43888851  0.15962620     0.40100
H778        H  0.87543066  0.42783814  0.11731008     0.34900
C779        C  0.94012899  0.40677387  0.33313111    -0.26800
C780        C  0.95142700  0.39380655  0.34940809    -0.14900
C781        C  0.93877129  0.36712029  0.34216046     0.35800
C782        C  0.91610516  0.35443537  0.31673373    -0.26200
C783        C  0.90545584  0.36774988  0.29913370    -0.15500
C784        C  0.91729645  0.39400505  0.30824078     0.36900
N785        N  0.90711811  0.40815880  0.28976732    -0.89700
H786        H  0.94999612  0.42725926  0.33695385     0.18000
H787        H  0.90690154  0.33416762  0.31039920     0.18000
N788        N  0.94841252  0.35244750  0.36043160    -0.88700
H789        H  0.92157393  0.42279144  0.27004585     0.35300
H790        H  0.90302521  0.41660710  0.31549680     0.40400
H791        H  0.95010502  0.35528485  0.39438743     0.40100
H792        H  0.96681382  0.35892732  0.34742307     0.34900
C793        C  0.57297073  0.13976443  0.19835627    -0.26800
C794        C  0.59519820  0.16031448  0.21801077    -0.14900
C795        C  0.59366761  0.18023527  0.23688027     0.35800
C796        C  0.57015836  0.17923631  0.23579079    -0.26200
C797        C  0.54773935  0.15838761  0.21715767    -0.15500
C798        C  0.54930300  0.13849824  0.19808488     0.36900
N799        N  0.52691984  0.11677674  0.17889413    -0.89700
H800        H  0.57373844  0.12424765  0.18378272     0.18000
H801        H  0.56936907  0.19466578  0.25067326     0.18000
N802        N  0.61568710  0.20125670  0.25819446    -0.88700
H803        H  0.52343648  0.10035765  0.19530341     0.35300
H804        H  0.53126414  0.11556085  0.14609596     0.40400
H805        H  0.61053864  0.20170751  0.29083221     0.40100
H806        H  0.61987924  0.21817178  0.24279668     0.34900
C807        C  0.64585891  0.08540396  0.32334175    -0.26800
C808        C  0.63447132  0.09984039  0.31914921    -0.14900
C809        C  0.61095979  0.09176716  0.34183443     0.35800
C810        C  0.59821901  0.06823066  0.36442997    -0.26200
C811        C  0.60880972  0.05295513  0.36634200    -0.15500
C812        C  0.63355930  0.06240534  0.34739679     0.36900
N813        N  0.64633206  0.04876885  0.35240240    -0.89700
H814        H  0.66425999  0.09178634  0.30723790     0.18000
H815        H  0.57928273  0.06132160  0.37874877     0.18000
N816        N  0.59925571  0.10664134  0.33986278    -0.88700
H817        H  0.65008287  0.04457186  0.32108432     0.35300
H818        H  0.66419426  0.06089921  0.36768950     0.40400
H819        H  0.61127229  0.12352881  0.35728045     0.40100
H820        H  0.58133635  0.09726311  0.35618376     0.34900
C821        C  0.75579511  0.22156275  0.24962288    -0.26800
C822        C  0.73315395  0.22126682  0.25992408    -0.14900
C823        C  0.73543231  0.24448015  0.27109517     0.35800
C824        C  0.75962224  0.26754567  0.26780688    -0.26200
C825        C  0.78181103  0.26813616  0.25322497    -0.15500
C826        C  0.78012471  0.24474956  0.24606893     0.36900
N827        N  0.80268600  0.24459979  0.23281997    -0.89700
H828        H  0.75430705  0.20379033  0.24171852     0.18000
H829        H  0.76065378  0.28524065  0.27445872     0.18000
N830        N  0.71304753  0.24499758  0.28361476    -0.88700
H831        H  0.79789085  0.22589752  0.22740043     0.35300
H832        H  0.81569606  0.25159032  0.25908400     0.40400
H833        H  0.71088075  0.25647480  0.26103738     0.40100
H834        H  0.71652994  0.25357173  0.31446652     0.34900
C835        C  0.99656928  0.59126015  0.50421357    -0.26800
C836        C  0.00092348  0.57456213  0.48013760    -0.14900
C837        C  0.00586495  0.55783015  0.50330492     0.35800
C838        C  0.00582949  0.55775089  0.54948373    -0.26200
C839        C  0.99971541  0.57318915  0.57333744    -0.15500
C840        C  0.99586074  0.59066204  0.55033358     0.36900
N841        N  0.99133277  0.60794747  0.57370839    -0.89700
H842        H  0.99311039  0.60451524  0.48710732     0.18000
H843        H  0.00926924  0.54453290  0.56655672     0.18000
N844        N  0.00922752  0.53966969  0.48036736    -0.88700
H845        H  0.97346161  0.60478659  0.56359642     0.35300
H846        H  0.00586039  0.62661748  0.56477265     0.40400
H847        H  0.99466732  0.52130339  0.49075236     0.40100
H848        H  0.02719400  0.54263411  0.48924140     0.34900
C849        C  0.67250882  0.50224517  0.00982489    -0.26800
C850        C  0.67195624  0.52130288  0.98578345    -0.14900
C851        C  0.67189667  0.54101033  0.00888097     0.35800
C852        C  0.67151757  0.54075120  0.05521267    -0.26200
C853        C  0.67154223  0.52129918  0.07914219    -0.15500
C854        C  0.67229807  0.50202328  0.05581352     0.36900
N855        N  0.67223537  0.48169130  0.07850318    -0.89700
H856        H  0.67266633  0.48698095  0.99286395     0.18000
H857        H  0.67106852  0.55577867  0.07245471     0.18000
N858        N  0.67187070  0.56112177  0.98562868    -0.88700
H859        H  0.68885069  0.48189596  0.06898511     0.35300
H860        H  0.65593241  0.46435260  0.06849963     0.40400
H861        H  0.68824534  0.57854209  0.99530321     0.40100
H862        H  0.65535217  0.56103893  0.99517033     0.34900
C863        C  0.81928865  0.51160128  0.05166022    -0.26800
C864        C  0.84306022  0.52591669  0.07378474    -0.14900
C865        C  0.86622774  0.54086303  0.04907989     0.35800
C866        C  0.86502582  0.54041124  0.00283895    -0.26200
C867        C  0.84126551  0.52521521  0.98095299    -0.15500
C868        C  0.81819237  0.51119451  0.00575954     0.36900
N869        N  0.79351001  0.49643084  0.98448008    -0.89700
H870        H  0.80133265  0.50026557  0.07009388     0.18000
H871        H  0.88283081  0.55117964  0.98383573     0.18000
N872        N  0.89095410  0.55533295  0.07068615    -0.88700
H873        H  0.78182289  0.50303310  0.99513599     0.35300
H874        H  0.78476618  0.47738456  0.99462364     0.40400
H875        H  0.89145986  0.57032316  0.08731669     0.40100
H876        H  0.90609315  0.56386613  0.04764920     0.34900
C877        C  0.92704420  0.55025859  0.78847563    -0.26800
C878        C  0.90620715  0.54971185  0.76821130    -0.14900
C879        C  0.90699107  0.55382971  0.72270186     0.35800
C880        C  0.92862084  0.55839218  0.69807528    -0.26200
C881        C  0.94934812  0.55808240  0.71801585    -0.15500
C882        C  0.94808113  0.55368942  0.76397235     0.36900
N883        N  0.96783456  0.55190541  0.78592046    -0.89700
H884        H  0.92632177  0.54638288  0.82338724     0.18000
H885        H  0.92827320  0.56131291  0.66327854     0.18000
N886        N  0.88576275  0.55317857  0.70128034    -0.88700
H887        H  0.97574299  0.56570244  0.81063997     0.35300
H888        H  0.95904663  0.53386974  0.80081781     0.40400
H889        H  0.87852606  0.53894342  0.67731625     0.40100
H890        H  0.89299689  0.57076055  0.68543015     0.34900
C891        C  0.78071859  0.54456553  0.83118381    -0.26800
C892        C  0.78064081  0.52344877  0.81428129    -0.14900
C893        C  0.75754597  0.50317316  0.79567531     0.35800
C894        C  0.73465893  0.50335036  0.79767812    -0.26200
C895        C  0.73415637  0.52335732  0.81817354    -0.15500
C896        C  0.75767236  0.54455473  0.83379357     0.36900
N897        N  0.75799826  0.56528767  0.85509568    -0.89700
H898        H  0.79831107  0.56038705  0.84538427     0.18000
H899        H  0.71688970  0.48710388  0.78477876     0.18000
N900        N  0.75695701  0.48191147  0.77594889    -0.88700
H901        H  0.77130638  0.58220100  0.83848111     0.35300
H902        H  0.76472770  0.56658790  0.88713649     0.40400
H903        H  0.75074288  0.48039133  0.74349986     0.40100
H904        H  0.74318247  0.46527946  0.79277424     0.34900
C905        C  0.40415355  0.40184349  0.56287700    -0.26800
C906        C  0.42306806  0.42339812  0.58620071    -0.14900
C907        C  0.44133620  0.44554282  0.56254914     0.35800
C908        C  0.44081915  0.44552453  0.51630801    -0.26200
C909        C  0.42251604  0.42360285  0.49301394    -0.15500
C910        C  0.40363867  0.40182301  0.51674418     0.36900
N911        N  0.38374973  0.37968867  0.49410307    -0.89700
H912        H  0.38987055  0.38474258  0.58060666     0.18000
H913        H  0.45558801  0.46235564  0.49858409     0.18000
N914        N  0.46133707  0.46759952  0.58518104    -0.88700
H915        H  0.36572450  0.37610725  0.50451007     0.35300
H916        H  0.38491056  0.36407979  0.50344815     0.40400
H917        H  0.45996661  0.48318347  0.57659222     0.40100
H918        H  0.47935057  0.47138460  0.57423895     0.34900
C919        C  0.48212336  0.17284495  0.01812493    -0.26800
C920        C  0.46363678  0.14983205  0.99783127    -0.14900
C921        C  0.44559890  0.12882276  0.02431693     0.35800
C922        C  0.44722402  0.13118605  0.07041865    -0.26200
C923        C  0.46672485  0.15386234  0.09042301    -0.15500
C924        C  0.48380786  0.17506818  0.06379607     0.36900
N925        N  0.50308875  0.19898748  0.08286693    -0.89700
H926        H  0.49585237  0.18928483  0.99843997     0.18000
H927        H  0.43392237  0.11488667  0.09075262     0.18000
N928        N  0.42623315  0.10502065  0.00467629    -0.88700
H929        H  0.49995796  0.21306433  0.07154015     0.35300
H930        H  0.52136170  0.20362398  0.07167381     0.40400
H931        H  0.41394815  0.09198234  0.02874402     0.40100
H932        H  0.43588639  0.09708247  0.99022370     0.34900
C933        C  0.57010831  0.39357242  0.82884631    -0.26800
C934        C  0.54694606  0.39155628  0.84192594    -0.14900
C935        C  0.54752280  0.41400029  0.85304812     0.35800
C936        C  0.57134686  0.43755812  0.85337564    -0.26200
C937        C  0.59460568  0.43950139  0.84172279    -0.15500
C938        C  0.59397692  0.41733324  0.82862726     0.36900
N939        N  0.61753300  0.41885662  0.81619023    -0.89700
H940        H  0.56971310  0.37648151  0.81972972     0.18000
H941        H  0.57170586  0.45463631  0.86249170     0.18000
N942        N  0.52397074  0.41293002  0.86385151    -0.88700
H943        H  0.61358583  0.40090526  0.80670775     0.35300
H944        H  0.62925002  0.42403637  0.84407668     0.40400
H945        H  0.51268517  0.40766074  0.83541078     0.40100
H946        H  0.52795118  0.43101365  0.87246934     0.34900
C947        C  0.45242401  0.32176265  0.00374708    -0.26800
C948        C  0.46871455  0.31516737  0.98311475    -0.14900
C949        C  0.48402939  0.30947992  0.00955704     0.35800
C950        C  0.48391201  0.31201749  0.05536347    -0.26200
C951        C  0.46839615  0.31946239  0.07591751    -0.15500
C952        C  0.45214918  0.32406061  0.04984549     0.36900
N953        N  0.43613900  0.33187056  0.06991701    -0.89700
H954        H  0.44053610  0.32604731  0.98377039     0.18000
H955        H  0.49609130  0.30808396  0.07527385     0.18000
N956        N  0.49982579  0.30127586  0.98995925    -0.88700
H957        H  0.42517777  0.33417724  0.04619157     0.35300
H958        H  0.44851291  0.34989940  0.08373318     0.40400
H959        H  0.48726079  0.28340313  0.97576944     0.40100
H960        H  0.51034434  0.29848769  0.01390440     0.34900
C961        C  0.45978024  0.36344610  0.72802975    -0.26800
C962        C  0.44387732  0.34758068  0.76243766    -0.14900
C963        C  0.42097561  0.34696077  0.77272128     0.35800
C964        C  0.41586602  0.36399256  0.75133281    -0.26200
C965        C  0.43344656  0.38211349  0.72028523    -0.15500
C966        C  0.45476624  0.38048304  0.70692582     0.36900
N967        N  0.47211291  0.39693270  0.67297105    -0.89700
H968        H  0.47715532  0.36377314  0.71895853     0.18000
H969        H  0.39818216  0.36292509  0.75995058     0.18000
N970        N  0.40332541  0.32956266  0.80569208    -0.88700
H971        H  0.49081854  0.40783465  0.68609766     0.35300
H972        H  0.47237911  0.38547443  0.64811975     0.40400
H973        H  0.39570589  0.31096727  0.79419157     0.40100
H974        H  0.38757993  0.33170194  0.80985698     0.34900
C975        C  0.48168397  0.22375039  0.79923116    -0.26800
C976        C  0.46099757  0.20297562  0.82202615    -0.14900
C977        C  0.44033945  0.20502496  0.83760634     0.35800
C978        C  0.44235569  0.22867632  0.83450009    -0.26200
C979        C  0.46450581  0.25024942  0.81618628    -0.15500
C980        C  0.48371765  0.24734078  0.79645807     0.36900
N981        N  0.50582383  0.26847040  0.77497155    -0.89700
H982        H  0.49729063  0.22225731  0.78577034     0.18000
H983        H  0.42722461  0.23060367  0.84887134     0.18000
N984        N  0.41802064  0.18357891  0.85842765    -0.88700
H985        H  0.50618852  0.26325873  0.74247706     0.35300
H986        H  0.52259771  0.27166193  0.79047274     0.40400
H987        H  0.40832370  0.16944239  0.83459334     0.40100
H988        H  0.40496589  0.18853045  0.86898684     0.34900
C989        C  0.14254775  0.45187133  0.05215412    -0.26800
C990        C  0.16476055  0.47079192  0.07442621    -0.14900
C991        C  0.18703124  0.48833589  0.04977595     0.35800
C992        C  0.18597349  0.48802422  0.00380950    -0.26200
C993        C  0.16315479  0.47035361  0.98144560    -0.15500
C994        C  0.14146562  0.45143066  0.00590952     0.36900
N995        N  0.11796259  0.43272248  0.98406857    -0.89700
H996        H  0.12551431  0.43805784  0.07084739     0.18000
H997        H  0.20301085  0.50225031  0.98555166     0.18000
N998        N  0.21065472  0.50694659  0.07114488    -0.88700
H999        H  0.10345336  0.42117691  0.00694590     0.35300
H1000       H  0.12194216  0.42062941  0.96683280     0.40400
H1001       H  0.21537938  0.52513978  0.06122433     0.40100
H1002       H  0.22545703  0.50446886  0.06036984     0.34900
C1003       C  0.32731216  0.46586190  0.01581064    -0.26800
C1004       C  0.33170695  0.48775813  0.99349252    -0.14900
C1005       C  0.33439564  0.50828508  0.01821372     0.35800
C1006       C  0.33355732  0.50692734  0.06416218    -0.26200
C1007       C  0.33027383  0.48554415  0.08663581    -0.15500
C1008       C  0.32650269  0.46447567  0.06208151     0.36900
N1009       N  0.32227481  0.44194374  0.08396795    -0.89700
H1010       H  0.32505671  0.44994518  0.99713576     0.18000
H1011       H  0.33627854  0.52319764  0.08233159     0.18000
N1012       N  0.33847825  0.53085755  0.99702145    -0.88700
H1013       H  0.32060464  0.42857178  0.06113838     0.35300
H1014       H  0.30436299  0.43343162  0.10024680     0.40400
H1015       H  0.35609327  0.54652106  0.00810462     0.40100
H1016       H  0.32356933  0.53341421  0.00678212     0.34900
C1017       C  0.37079064  0.45809091  0.73683373    -0.26800
C1018       C  0.37148896  0.45740972  0.78310604    -0.14900
C1019       C  0.38439695  0.44654950  0.80300358     0.35800
C1020       C  0.39625565  0.43717163  0.77687598    -0.26200
C1021       C  0.39533167  0.43750940  0.73072023    -0.15500
C1022       C  0.38235558  0.44804569  0.71063490     0.36900
N1023       N  0.38029202  0.44803389  0.66381993    -0.89700
H1024       H  0.36109301  0.46633721  0.72078987     0.18000
H1025       H  0.40675597  0.42988148  0.79325927     0.18000
N1026       N  0.38638417  0.44509892  0.84966721    -0.88700
H1027       H  0.38848632  0.46694609  0.65330654     0.35300
H1028       H  0.36054624  0.43781506  0.65582210     0.40400
H1029       H  0.36769228  0.43399516  0.86309657     0.40100
H1030       H  0.39594131  0.46356798  0.86260503     0.34900
C1031       C  0.25090163  0.45873774  0.82633067    -0.26800
C1032       C  0.27392084  0.48262105  0.81873598    -0.14900
C1033       C  0.27202041  0.50333286  0.80502678     0.35800
C1034       C  0.24763194  0.50044433  0.80282675    -0.26200
C1035       C  0.22476259  0.47727558  0.81437512    -0.15500
C1036       C  0.22631661  0.45579224  0.82419583     0.36900
N1037       N  0.20318592  0.43141144  0.83395146    -0.89700
H1038       H  0.25210916  0.44256557  0.83600162     0.18000
H1039       H  0.24685061  0.51701331  0.79431116     0.18000
N1040       N  0.29485643  0.52775213  0.79501797    -0.88700
H1041       H  0.20782566  0.41788802  0.84186197     0.35300
H1042       H  0.19215071  0.42500902  0.80524420     0.40400
H1043       H  0.29539030  0.54127478  0.81619651     0.40100
H1044       H  0.29323107  0.53272011  0.76288148     0.34900
C1045       C  0.39691833  0.99621759  0.51374313    -0.26800
C1046       C  0.41567728  0.99370727  0.49152798    -0.14900
C1047       C  0.43088048  0.98719493  0.51625231     0.35800
C1048       C  0.42918739  0.98641142  0.56230894    -0.26200
C1049       C  0.41307086  0.99254045  0.58469345    -0.15500
C1050       C  0.39530557  0.99556057  0.55968393     0.36900
N1051       N  0.37459941  0.99668985  0.57948304    -0.89700
H1052       H  0.38382068  0.99951352  0.49522039     0.18000
H1053       H  0.44155282  0.98209173  0.58051509     0.18000
N1054       N  0.44894317  0.98247681  0.49536389    -0.88700
H1055       H  0.38202500  0.01390579  0.59605789     0.35300
H1056       H  0.36467285  0.98145256  0.60165467     0.40400
H1057       H  0.44371686  0.96389777  0.50358290     0.40100
H1058       H  0.46734271  0.99506403  0.50853989     0.34900
C1059       C  0.42437310  0.05971619  0.71426706    -0.26800
C1060       C  0.42512330  0.03917884  0.73254451    -0.14900
C1061       C  0.42986570  0.03968321  0.77829498     0.35800
C1062       C  0.43448345  0.06043048  0.80373940    -0.26200
C1063       C  0.43581303  0.08168929  0.78475494    -0.15500
C1064       C  0.43026241  0.08108949  0.73951237     0.36900
N1065       N  0.43071483  0.10192820  0.71803569    -0.89700
H1066       H  0.42054632  0.06021709  0.67987296     0.18000
H1067       H  0.43876413  0.06052751  0.83830842     0.18000
N1068       N  0.43106565  0.01952573  0.79902280    -0.88700
H1069       H  0.44964908  0.11801224  0.71872475     0.35300
H1070       H  0.41838652  0.10589353  0.73511923     0.40400
H1071       H  0.41725880  0.01182846  0.82435563     0.40100
H1072       H  0.44947149  0.02744722  0.81298957     0.34900
C1073       C  0.33863047  0.86517765  0.01403939    -0.26800
C1074       C  0.32921944  0.84164510  0.99291302    -0.14900
C1075       C  0.31970604  0.81935606  0.01923144     0.35800
C1076       C  0.32095692  0.82131773  0.06501442    -0.26200
C1077       C  0.33156259  0.84498168  0.08608854    -0.15500
C1078       C  0.33991970  0.86711852  0.06022707     0.36900
N1079       N  0.35020171  0.89157951  0.08065924    -0.89700
H1080       H  0.34576146  0.88234405  0.99444711     0.18000
H1081       H  0.31394400  0.80405540  0.08430703     0.18000
N1082       N  0.30906711  0.79442168  0.00082942    -0.88700
H1083       H  0.35396684  0.90554622  0.05720380     0.35300
H1084       H  0.36813754  0.89693025  0.09434256     0.40400
H1085       H  0.32343006  0.79425258  0.98231661     0.40100
H1086       H  0.29337010  0.79022416  0.98077665     0.34900
C1087       C  0.35012742  0.91161559  0.76228765    -0.26800
C1088       C  0.36266608  0.89833207  0.76708865    -0.14900
C1089       C  0.38681267  0.90758674  0.74581969     0.35800
C1090       C  0.39840665  0.93062039  0.72194611    -0.26200
C1091       C  0.38659579  0.94473988  0.71929792    -0.15500
C1092       C  0.36165240  0.93456039  0.73818058     0.36900
N1093       N  0.34830226  0.94775507  0.73347941    -0.89700
H1094       H  0.33145596  0.90428772  0.77811142     0.18000
H1095       H  0.41759751  0.93839184  0.70797067     0.18000
N1096       N  0.40025124  0.89445761  0.75062062    -0.88700
H1097       H  0.33032444  0.93785708  0.74969002     0.35300
H1098       H  0.34445492  0.94794911  0.70010423     0.40400
H1099       H  0.40560498  0.89575020  0.78358558     0.40100
H1100       H  0.41753981  0.90361011  0.73240386     0.34900
C1101       C  0.14122700  0.57192598  0.87200072    -0.26800
C1102       C  0.15850577  0.59232214  0.84442874    -0.14900
C1103       C  0.17683744  0.59032352  0.81921750     0.35800
C1104       C  0.17763957  0.56814443  0.82271577    -0.26200
C1105       C  0.16019210  0.54762926  0.84999531    -0.15500
C1106       C  0.14191531  0.54969115  0.87530782     0.36900
N1107       N  0.12410791  0.52932018  0.90433477    -0.89700
H1108       H  0.12723805  0.57342014  0.89158112     0.18000
H1109       H  0.19162214  0.56665641  0.80311300     0.18000
N1110       N  0.19430756  0.61053447  0.78963204    -0.88700
H1111       H  0.11136693  0.53352906  0.91917802     0.35300
H1112       H  0.13504710  0.52824964  0.92967487     0.40400
H1113       H  0.18310254  0.61125920  0.76439787     0.40100
H1114       H  0.20706803  0.60636662  0.77473916     0.34900
C1115       C  0.17904116  0.67125167  0.00003586    -0.26800
C1116       C  0.15629412  0.66575948  0.97835781    -0.14900
C1117       C  0.13528979  0.66272385  0.00366959     0.35800
C1118       C  0.13713786  0.66393931  0.04995837    -0.26200
C1119       C  0.15959901  0.66841301  0.07146023    -0.15500
C1120       C  0.18092785  0.67273567  0.04589219     0.36900
N1121       N  0.20465630  0.67858027  0.06627017    -0.89700
H1122       H  0.19557893  0.67416158  0.98133493     0.18000
H1123       H  0.12072065  0.66078227  0.06932926     0.18000
N1124       N  0.11201526  0.65791702  0.98261878    -0.88700
H1125       H  0.21970974  0.69625422  0.05414896     0.35300
H1126       H  0.20844224  0.66465955  0.05695365     0.40400
H1127       H  0.11684330  0.67438821  0.96486011     0.40100
H1128       H  0.09818107  0.65529388  0.00599882     0.34900
C1129       C  0.07794476  0.63894667  0.75164311    -0.26800
C1130       C  0.09446273  0.62973660  0.75384906    -0.14900
C1131       C  0.08809177  0.60761482  0.72983704     0.35800
C1132       C  0.06404619  0.59371818  0.70817402    -0.26200
C1133       C  0.04680184  0.60215247  0.70777871    -0.15500
C1134       C  0.05474840  0.62599896  0.72732053     0.36900
N1135       N  0.03938829  0.63709062  0.72215399    -0.89700
H1136       H  0.08323266  0.65637747  0.76881096     0.18000
H1137       H  0.05846278  0.57572911  0.69291611     0.18000
N1138       N  0.10537486  0.59851068  0.72942766    -0.88700
H1139       H  0.04802166  0.65468375  0.73824457     0.35300
H1140       H  0.03925875  0.64088204  0.68870524     0.40400
H1141       H  0.12184226  0.61167757  0.71124012     0.40100
H1142       H  0.09704723  0.58116652  0.71266364     0.34900
C1143       C  0.24450025  0.77504105  0.83042463    -0.26800
C1144       C  0.26757767  0.77620338  0.82005246    -0.14900
C1145       C  0.26602826  0.75402039  0.80398160     0.35800
C1146       C  0.24167088  0.73100457  0.80129954    -0.26200
C1147       C  0.21882517  0.72939574  0.81505680    -0.15500
C1148       C  0.22025570  0.75188292  0.82846189     0.36900
N1149       N  0.19736615  0.75118447  0.84198135    -0.89700
H1150       H  0.24531251  0.79189156  0.84246302     0.18000
H1151       H  0.24075693  0.71390199  0.79047511     0.18000
N1152       N  0.28917489  0.75453600  0.79225979    -0.88700
H1153       H  0.19564826  0.76407968  0.82237236     0.35300
H1154       H  0.19990997  0.75748282  0.87448029     0.40400
H1155       H  0.29725036  0.76631863  0.76458162     0.40100
H1156       H  0.28467903  0.73636542  0.78299588     0.34900
C1157       C  0.49982613  0.52373006  0.69695117    -0.26800
C1158       C  0.52465897  0.52772381  0.69050518    -0.14900
C1159       C  0.52621658  0.50587941  0.68571743     0.35800
C1160       C  0.50338790  0.48129887  0.68480207    -0.26200
C1161       C  0.47859586  0.47738963  0.69092758    -0.15500
C1162       C  0.47718292  0.49917617  0.69861252     0.36900
N1163       N  0.45362148  0.49730233  0.71158380    -0.89700
H1164       H  0.49765004  0.53981974  0.70096411     0.18000
H1165       H  0.50523417  0.46504955  0.67965665     0.18000
N1166       N  0.55082777  0.50817686  0.68333046    -0.88700
H1167       H  0.44486881  0.48394026  0.73709419     0.35300
H1168       H  0.44114005  0.49204685  0.68494524     0.40400
H1169       H  0.55156553  0.49987337  0.65397106     0.40100
H1170       H  0.55194546  0.49777669  0.70938452     0.34900
C1171       C  0.60156375  0.60642103  0.56462373    -0.26800
C1172       C  0.58014114  0.58575339  0.58641226    -0.14900
C1173       C  0.55983939  0.56620508  0.56093418     0.35800
C1174       C  0.56205359  0.56687998  0.51514909    -0.26200
C1175       C  0.58381356  0.58696721  0.49339929    -0.15500
C1176       C  0.60345631  0.60754873  0.51844361     0.36900
N1177       N  0.62502583  0.63010143  0.49838844    -0.89700
H1178       H  0.61680880  0.62201135  0.58365458     0.18000
H1179       H  0.54664560  0.55128522  0.49635688     0.18000
N1180       N  0.53619926  0.54592356  0.58029881    -0.88700
H1181       H  0.62390637  0.64567002  0.50802852     0.35300
H1182       H  0.62358628  0.62952636  0.46422660     0.40400
H1183       H  0.52825856  0.55389848  0.59993833     0.40100
H1184       H  0.54030367  0.53462907  0.59965010     0.34900
C1185       C  0.62927068  0.56518561  0.70550413    -0.26800
C1186       C  0.60674111  0.56296561  0.72251296    -0.14900
C1187       C  0.59650831  0.55023062  0.76287536     0.35800
C1188       C  0.60957583  0.54118099  0.78672697    -0.26200
C1189       C  0.63262544  0.54407330  0.77077412    -0.15500
C1190       C  0.64214850  0.55559726  0.72898670     0.36900
N1191       N  0.66520114  0.55858478  0.71029140    -0.89700
H1192       H  0.63722257  0.57494127  0.67443405     0.18000
H1193       H  0.60153416  0.53174966  0.81802155     0.18000
N1194       N  0.57287521  0.54669027  0.77999788    -0.88700
H1195       H  0.66207362  0.54043790  0.70557106     0.35300
H1196       H  0.68046019  0.56865211  0.73245246     0.40400
H1197       H  0.57673782  0.55500634  0.81109877     0.40100
H1198       H  0.55942840  0.52704541  0.78379186     0.34900
C1199       C  0.47623129  0.98780333  0.72337454    -0.26800
C1200       C  0.47115081  0.99679848  0.68495573    -0.14900
C1201       C  0.48953638  0.00642970  0.65058158     0.35800
C1202       C  0.51195707  0.00546512  0.65403546    -0.26200
C1203       C  0.51705103  0.99618204  0.69228692    -0.15500
C1204       C  0.49926171  0.98796134  0.72791515     0.36900
N1205       N  0.50506820  0.98078706  0.76914190    -0.89700
H1206       H  0.46258031  0.98153688  0.75056211     0.18000
H1207       H  0.52544599  0.01210844  0.62660579     0.18000
N1208       N  0.48607475  0.01812245  0.61286650    -0.88700
H1209       H  0.49006247  0.97536655  0.79184157     0.35300
H1210       H  0.52160639  0.99704006  0.78184982     0.40400
H1211       H  0.48714157  0.00893988  0.58495946     0.40100
H1212       H  0.50170467  0.03715653  0.61138736     0.34900
C1213       C  0.55343546  0.98220608  0.57044931    -0.26800
C1214       C  0.57348564  0.00306016  0.59323288    -0.14900
C1215       C  0.59316141  0.02446623  0.56976823     0.35800
C1216       C  0.59303724  0.02389777  0.52344533    -0.26200
C1217       C  0.57361172  0.00237985  0.50082361    -0.15500
C1218       C  0.55318331  0.98164387  0.52453271     0.36900
N1219       N  0.53240843  0.95994762  0.50184690    -0.89700
H1220       H  0.53810245  0.96604288  0.58876644     0.18000
H1221       H  0.60848940  0.03986041  0.50497615     0.18000
N1222       N  0.61370096  0.04604575  0.59289733    -0.88700
H1223       H  0.52240992  0.96625749  0.48350959     0.35300
H1224       H  0.51899575  0.94636690  0.52417304     0.40400
H1225       H  0.60547148  0.05466555  0.60982970     0.40100
H1226       H  0.62710666  0.05975578  0.57068206     0.34900
C1227       C  0.43383368  0.82659682  0.83960175    -0.26800
C1228       C  0.45264018  0.84235712  0.87064294    -0.14900
C1229       C  0.44739010  0.85669427  0.89995557     0.35800
C1230       C  0.42409062  0.85597901  0.89594180    -0.26200
C1231       C  0.40550352  0.84055152  0.86442244    -0.15500
C1232       C  0.41038287  0.82563199  0.83596663     0.36900
N1233       N  0.39186327  0.81002771  0.80281947    -0.89700
H1234       H  0.43773088  0.81550253  0.81715968     0.18000
H1235       H  0.42021828  0.86718799  0.91816277     0.18000
N1236       N  0.46552122  0.87170870  0.93396549    -0.88700
H1237       H  0.39820692  0.79986280  0.78532051     0.35300
H1238       H  0.39101389  0.82231661  0.78024903     0.40400
H1239       H  0.46616445  0.85900463  0.95583383     0.40100
H1240       H  0.45891783  0.88146646  0.95203718     0.34900
C1241       C  0.55378240  0.86877627  0.02342923    -0.26800
C1242       C  0.53470876  0.84693192  0.00092221    -0.14900
C1243       C  0.51741897  0.82460666  0.02528491     0.35800
C1244       C  0.51807653  0.82517509  0.07122345    -0.26200
C1245       C  0.53587655  0.84752671  0.09381749    -0.15500
C1246       C  0.55454234  0.86923909  0.06959732     0.36900
N1247       N  0.57357844  0.89214986  0.09157228    -0.89700
H1248       H  0.56752634  0.88593338  0.00528132     0.18000
H1249       H  0.50399185  0.80812102  0.08928076     0.18000
N1250       N  0.49877415  0.80133733  0.00369030    -0.88700
H1251       H  0.57124026  0.90694351  0.08150731     0.35300
H1252       H  0.59199367  0.89671839  0.08139164     0.40400
H1253       H  0.48020848  0.79600677  0.01444334     0.40100
H1254       H  0.50202067  0.78708034  0.01340247     0.34900
C1255       C  0.53989451  0.90656617  0.74187584    -0.26800
C1256       C  0.55552196  0.90942566  0.77777859    -0.14900
C1257       C  0.57811598  0.93354359  0.78555888     0.35800
C1258       C  0.58277273  0.95486445  0.76079628    -0.26200
C1259       C  0.56518570  0.95279216  0.72839223    -0.15500
C1260       C  0.54458129  0.92755161  0.71646575     0.36900
N1261       N  0.52699052  0.92214211  0.68059939    -0.89700
H1262       H  0.52296996  0.88788522  0.73447235     0.18000
H1263       H  0.60018072  0.97304981  0.76777386     0.18000
N1264       N  0.59600348  0.93643099  0.81917595    -0.88700
H1265       H  0.52848872  0.90986254  0.65911736     0.35300
H1266       H  0.53185750  0.93820633  0.66197613     0.40400
H1267       H  0.61156295  0.95545540  0.82117182     0.40100
H1268       H  0.60386194  0.92572515  0.80976287     0.34900
C1269       C  0.44253723  0.61026725  0.84277259    -0.26800
C1270       C  0.46411848  0.61110796  0.86106888    -0.14900
C1271       C  0.46134144  0.58810932  0.87590880     0.35800
C1272       C  0.43693497  0.56513925  0.87363348    -0.26200
C1273       C  0.41517786  0.56436438  0.85640170    -0.15500
C1274       C  0.41806832  0.58723140  0.84053269     0.36900
N1275       N  0.39619394  0.58719148  0.82290498    -0.89700
H1276       H  0.44457611  0.62780056  0.83111941     0.18000
H1277       H  0.43495332  0.54764729  0.88539300     0.18000
N1278       N  0.48321160  0.58803068  0.89329273    -0.88700
H1279       H  0.40185999  0.60541562  0.81146696     0.35300
H1280       H  0.38313404  0.58299104  0.84874612     0.40400
H1281       H  0.49642691  0.59268938  0.86752878     0.40100
H1282       H  0.47762942  0.56969395  0.90398263     0.34900
C1283       C  0.56042911  0.69545084  0.03150144    -0.26800
C1284       C  0.53934477  0.69261277  0.00758073    -0.14900
C1285       C  0.51884080  0.69209082  0.03047296     0.35800
C1286       C  0.51920732  0.69298289  0.07643332    -0.26200
C1287       C  0.53928366  0.69398979  0.10057113    -0.15500
C1288       C  0.56052568  0.69587169  0.07783135     0.36900
N1289       N  0.58162022  0.69728157  0.10153322    -0.89700
H1290       H  0.57631228  0.69611985  0.01411661     0.18000
H1291       H  0.50311613  0.69203954  0.09358225     0.18000
N1292       N  0.49729219  0.69000987  0.00719027    -0.88700
H1293       H  0.59601791  0.69948356  0.07984376     0.35300
H1294       H  0.57433241  0.67966341  0.11729096     0.40400
H1295       H  0.50440380  0.70692727  0.98920601     0.40100
H1296       H  0.48339954  0.68880399  0.02901598     0.34900
C1297       C  0.56773193  0.63333253  0.80906509    -0.26800
C1298       C  0.56806739  0.65432299  0.79113499    -0.14900
C1299       C  0.57287552  0.65934012  0.74559319     0.35800
C1300       C  0.57644382  0.64291955  0.71911750    -0.26200
C1301       C  0.57429330  0.62070869  0.73657387    -0.15500
C1302       C  0.57019764  0.61637624  0.78250892     0.36900
N1303       N  0.56731532  0.59398576  0.80234623    -0.89700
H1304       H  0.56374431  0.62892799  0.84377531     0.18000
H1305       H  0.57986578  0.64742958  0.68459637     0.18000
N1306       N  0.57406389  0.68079285  0.72508922    -0.88700
H1307       H  0.54894330  0.58348857  0.81715324     0.35300
H1308       H  0.58129937  0.59980922  0.82695340     0.40400
H1309       H  0.58764401  0.69739249  0.74179582     0.40100
H1310       H  0.55580990  0.67845650  0.72728479     0.34900
C1311       C  0.52220685  0.74916907  0.81812420    -0.26800
C1312       C  0.54201716  0.74972467  0.84252855    -0.14900
C1313       C  0.56073469  0.77262366  0.86364037     0.35800
C1314       C  0.55862510  0.79409679  0.86089999    -0.26200
C1315       C  0.53775454  0.79287175  0.83898593    -0.15500
C1316       C  0.51966956  0.77034870  0.81652553     0.36900
N1317       N  0.49830326  0.76873942  0.79340748    -0.89700
H1318       H  0.50790786  0.73170383  0.80168714     0.18000
H1319       H  0.57232249  0.81129760  0.87861739     0.18000
N1320       N  0.58084731  0.77364865  0.88988640    -0.88700
H1321       H  0.48656376  0.75070817  0.77921682     0.35300
H1322       H  0.50607956  0.78197834  0.76755255     0.40400
H1323       H  0.57190480  0.76171651  0.91715123     0.40100
H1324       H  0.59326221  0.79206848  0.90227697     0.34900
C1325       C  0.82287592  0.40332249  0.82581159    -0.26800
C1326       C  0.84252874  0.40290131  0.84902967    -0.14900
C1327       C  0.86147208  0.42519614  0.87133552     0.35800
C1328       C  0.86093741  0.44753935  0.86818408    -0.26200
C1329       C  0.84133339  0.44800062  0.84483024    -0.15500
C1330       C  0.82199938  0.42552147  0.82349834     0.36900
N1331       N  0.80137251  0.42508986  0.79993203    -0.89700
H1332       H  0.80812536  0.38624499  0.80902780     0.18000
H1333       H  0.87571229  0.46460530  0.88497468     0.18000
N1334       N  0.88099809  0.42511602  0.89760166    -0.88700
H1335       H  0.78783953  0.40663384  0.78881274     0.35300
H1336       H  0.80957661  0.43650195  0.77189088     0.40400
H1337       H  0.87152643  0.41299080  0.92446732     0.40100
H1338       H  0.89386396  0.44325797  0.91060935     0.34900
C1339       C  0.86877152  0.33835780  0.00507630    -0.26800
C1340       C  0.84515388  0.32830652  0.98253742    -0.14900
C1341       C  0.82182363  0.31700719  0.00712887     0.35800
C1342       C  0.82259490  0.31710867  0.05316313    -0.26200
C1343       C  0.84623890  0.32809550  0.07584740    -0.15500
C1344       C  0.86949749  0.33827053  0.05134342     0.36900
N1345       N  0.89396464  0.34901993  0.07313288    -0.89700
H1346       H  0.88686998  0.34693187  0.98680980     0.18000
H1347       H  0.80445250  0.30888280  0.07121153     0.18000
N1348       N  0.79717262  0.30540602  0.98560342    -0.88700
H1349       H  0.90591058  0.36811938  0.06319364     0.35300
H1350       H  0.90259128  0.33919656  0.06266243     0.40400
H1351       H  0.78790026  0.31459452  0.99614905     0.40100
H1352       H  0.78586302  0.28625381  0.99558869     0.34900
C1353       C  0.58888688  0.17344651  0.84402534    -0.26800
C1354       C  0.59091819  0.15556227  0.86920110    -0.14900
C1355       C  0.56902520  0.13672411  0.89312078     0.35800
C1356       C  0.54579916  0.13620206  0.89161289    -0.26200
C1357       C  0.54355141  0.15377888  0.86588404    -0.15500
C1358       C  0.56551320  0.17260929  0.84165964     0.36900
N1359       N  0.56464524  0.19067662  0.81343801    -0.89700
H1360       H  0.60541170  0.18784104  0.82498756     0.18000
H1361       H  0.52928751  0.12161996  0.91044390     0.18000
N1362       N  0.57011654  0.11793515  0.91888872    -0.88700
H1363       H  0.56014283  0.20187572  0.83226586     0.35300
H1364       H  0.55019906  0.18066804  0.78991345     0.40400
H1365       H  0.55588612  0.09983158  0.90733503     0.40100
H1366       H  0.56548875  0.11939160  0.95138979     0.34900
C1367       C  0.65819026  0.13182024  0.06918680    -0.26800
C1368       C  0.67022475  0.15538066  0.09122956    -0.14900
C1369       C  0.68267861  0.17817199  0.06610162     0.35800
C1370       C  0.68177313  0.17704299  0.02014697    -0.26200
C1371       C  0.66876711  0.15358554  0.99793726    -0.15500
C1372       C  0.65748334  0.13064969  0.02280709     0.36900
N1373       N  0.64451536  0.10627760  0.00120744    -0.89700
H1374       H  0.64869900  0.11422098  0.08816151     0.18000
H1375       H  0.69097783  0.19483673  0.00171751     0.18000
N1376       N  0.69607164  0.20267111  0.08698265    -0.88700
H1377       H  0.63627317  0.09137203  0.02426937     0.35300
H1378       H  0.65868932  0.10490808  0.98439296     0.40400
H1379       H  0.68762995  0.21270459  0.07666455     0.40100
H1380       H  0.71541515  0.21274302  0.07624300     0.34900
C1381       C  0.59172941  0.06431720  0.73443083    -0.26800
C1382       C  0.60312673  0.04998281  0.72836625    -0.14900
C1383       C  0.62921151  0.06053696  0.74129578     0.35800
C1384       C  0.64234281  0.08386842  0.76413133    -0.26200
C1385       C  0.63032951  0.09737584  0.77259016    -0.15500
C1386       C  0.60515778  0.08796243  0.75610228     0.36900
N1387       N  0.59251385  0.10154466  0.76370691    -0.89700
H1388       H  0.57183422  0.05659209  0.72432765     0.18000
H1389       H  0.66189516  0.09137932  0.77592934     0.18000
N1390       N  0.64218441  0.04743943  0.73139179    -0.88700
H1391       H  0.57546390  0.08962043  0.78162876     0.35300
H1392       H  0.58729224  0.10529152  0.73327268     0.40400
H1393       H  0.64340031  0.04684456  0.69720665     0.40100
H1394       H  0.66128623  0.05776736  0.74300085     0.34900
C1395       C  0.75806071  0.26246787  0.80106860    -0.26800
C1396       C  0.78041113  0.26441632  0.81823996    -0.14900
C1397       C  0.77860721  0.24197750  0.83388900     0.35800
C1398       C  0.75399396  0.21901789  0.83722242    -0.26200
C1399       C  0.73132304  0.21778700  0.82370277    -0.15500
C1400       C  0.73376507  0.23936399  0.80293779     0.36900
N1401       N  0.71155307  0.23809212  0.78431190    -0.89700
H1402       H  0.75921473  0.27921843  0.78737494     0.18000
H1403       H  0.75243798  0.20231511  0.85200070     0.18000
N1404       N  0.80147712  0.24274751  0.84807678    -0.88700
H1405       H  0.71535082  0.24281098  0.75097264     0.35300
H1406       H  0.70927996  0.25187447  0.79953761     0.40400
H1407       H  0.81327196  0.24669399  0.82039843     0.40100
H1408       H  0.79665488  0.22479019  0.85962865     0.34900
C1409       C  0.00752542  0.48878581  0.71052653    -0.26800
C1410       C  0.00253593  0.47454990  0.67187515    -0.14900
C1411       C  0.99430894  0.48149806  0.63405882     0.35800
C1412       C  0.99203740  0.50286815  0.63531347    -0.26200
C1413       C  0.99781239  0.51739145  0.67360684    -0.15500
C1414       C  0.00514933  0.50994859  0.71179608     0.36900
N1415       N  0.01025747  0.52351758  0.75230807    -0.89700
H1416       H  0.01304672  0.48325706  0.74026749     0.18000
H1417       H  0.98517309  0.50775175  0.60654278     0.18000
N1418       N  0.98856739  0.46724589  0.59422350    -0.88700
H1419       H  0.99342666  0.52274076  0.76217592     0.35300
H1420       H  0.02493331  0.54265022  0.74685291     0.40400
H1421       H  0.00061245  0.47970571  0.56934119     0.40100
H1422       H  0.96930438  0.46045286  0.58578826     0.34900
C1423       C  0.02727874  0.43798124  0.55085240    -0.26800
C1424       C  0.00389325  0.42179962  0.57353778    -0.14900
C1425       C  0.98068435  0.40757418  0.54948450     0.35800
C1426       C  0.98146957  0.40886171  0.50318174    -0.26200
C1427       C  0.00512089  0.42438189  0.48060327    -0.15500
C1428       C  0.02804578  0.43965448  0.50501455     0.36900
N1429       N  0.05207296  0.45763052  0.48345861    -0.89700
H1430       H  0.04511916  0.44997430  0.56889224     0.18000
H1431       H  0.96364300  0.39738706  0.48485907     0.18000
N1432       N  0.95643423  0.39145916  0.57181170    -0.88700
H1433       H  0.06586143  0.45328230  0.49213925     0.35300
H1434       H  0.05840714  0.47589903  0.49525033     0.40400
H1435       H  0.94834403  0.37276019  0.56056127     0.40100
H1436       H  0.94395222  0.39746991  0.56310965     0.34900
C1437       C  0.04973330  0.42092196  0.75531460    -0.26800
C1438       C  0.05149844  0.43340300  0.71525956    -0.14900
C1439       C  0.07706362  0.45172601  0.69916260     0.35800
C1440       C  0.09895103  0.45776029  0.72397933    -0.26200
C1441       C  0.09674304  0.44623794  0.76481782    -0.15500
C1442       C  0.07182076  0.42718942  0.77994663     0.36900
N1443       N  0.06858685  0.41458814  0.82119260    -0.89700
H1444       H  0.03134531  0.40676375  0.76958333     0.18000
H1445       H  0.11797583  0.47235966  0.71155600     0.18000
N1446       N  0.08194536  0.46515383  0.65821466    -0.88700
H1447       H  0.05879132  0.39490659  0.81552322     0.35300
H1448       H  0.05684620  0.41796624  0.84137924     0.40400
H1449       H  0.07217304  0.47468967  0.65695970     0.40100
H1450       H  0.07642180  0.45243849  0.63210193     0.34900
C1451       C  0.91255854  0.38678445  0.73782322    -0.26800
C1452       C  0.90543177  0.36359983  0.75854737    -0.14900
C1453       C  0.92125476  0.35357104  0.75243214     0.35800
C1454       C  0.94405083  0.36722773  0.72721002    -0.26200
C1455       C  0.95226321  0.39141250  0.70923638    -0.15500
C1456       C  0.93594611  0.40096406  0.71405915     0.36900
N1457       N  0.94367659  0.42573589  0.69747230    -0.89700
H1458       H  0.90069118  0.39480099  0.74234926     0.18000
H1459       H  0.95604301  0.35932111  0.72323090     0.18000
N1460       N  0.91480357  0.32968464  0.77151589    -0.88700
H1461       H  0.92926100  0.42361198  0.67609413     0.35300
H1462       H  0.94472843  0.43701798  0.72384311     0.40400
H1463       H  0.89603075  0.31556583  0.76170434     0.40100
H1464       H  0.91509668  0.33125417  0.80569231     0.34900
loop_ 
_geom_bond_atom_site_label_1 
_geom_bond_atom_site_label_2 
_geom_bond_distance 
_geom_bond_site_symmetry_2 
_ccdc_geom_bond_type 
C1            C2   1.533       .  S
C1            C7   1.547   1_455  S
C1            C5   1.537       .  S
C1         C1438   1.548       .  S
C2            H9   1.084       .  S
C2            C3   1.367       .  D
C3            C4   1.540   1_455  S
C3         C1424   1.488       .  S
C4            C8   1.544       .  S
C4            C6   1.536   1_655  S
C4           H10   1.106       .  S
C5           H11   1.086       .  S
C5            C6   1.365       .  D
C6         C1410   1.487       .  S
C7           H12   1.079       .  S
C7            C8   1.370       .  D
C8         C1455   1.495       .  S
In13         O15   2.246       .  S
In13         O16   2.258       .  S
In13         O24   2.264       .  S
In13         O18   2.239       .  S
In13         O20   2.246       .  S
In13         O21   2.273       .  S
In13         O22   2.235       .  S
In13         O25   2.238       .  S
C14          O20   1.263       .  A
C14          O22   1.261       .  A
C14        C1354   1.481       .  S
O15          C23   1.257       .  A
O16          C23   1.263       .  A
C17          O24   1.262       .  A
C17          O18   1.260       .  A
C17        C1399   1.488       .  S
C19          O21   1.263       .  A
C19          O25   1.261       .  A
C19        C1371   1.491       .  S
C23        C1385   1.479       .  S
In26         O28   2.232       .  S
In26         O29   2.274       .  S
In26         O37   2.263       .  S
In26         O31   2.245       .  S
In26         O33   2.246       .  S
In26         O34   2.261       .  S
In26         O35   2.241       .  S
In26         O38   2.248       .  S
C27          O33   1.263       .  A
C27          O35   1.261       .  A
C27        C1326   1.487       .  S
O28          C36   1.259       .  A
O29          C36   1.264       .  A
C30          O37   1.262       .  A
C30          O31   1.260       .  A
C30        C1396   1.489       .  S
C32          O34   1.262       .  A
C32          O38   1.258       .  A
C32        C1452   1.483       .  S
C36        C1340   1.489       .  S
In39         O41   2.243       .  S
In39         O42   2.242       .  S
In39         O50   2.254       .  S
In39         O44   2.220       .  S
In39         O46   2.251       .  S
In39         O47   2.271       .  S
In39         O48   2.235       .  S
In39         O51   2.219       .  S
C40          O46   1.262       .  A
C40          O48   1.260       .  A
C40        C1270   1.485       .  S
O41          C49   1.258       .  A
O42          C49   1.262       .  A
C43          O50   1.263       .  A
C43          O44   1.260       .  A
C43        C1312   1.480       .  S
C45          O47   1.265       .  A
C45          O51   1.259       .  A
C45        C1284   1.486   1_556  S
C49        C1298   1.482       .  S
In52         O54   2.216       .  S
In52         O55   2.264       .  S
In52         O63   2.242       .  S
In52         O57   2.226       .  S
In52         O59   2.241       .  S
In52         O60   2.254       .  S
In52         O61   2.232       .  S
In52         O64   2.242       .  S
C53          O59   1.262       .  A
C53          O61   1.261       .  A
C53        C1228   1.480       .  S
O54          C62   1.259       .  A
O55          C62   1.266       .  A
C56          O63   1.262       .  A
C56          O57   1.260       .  A
C56        C1315   1.477       .  S
C58          O60   1.263       .  A
C58          O64   1.260       .  A
C58        C1256   1.484       .  S
C62        C1242   1.484   1_556  S
C65          C66   1.548   1_565  S
C65          C71   1.532       .  S
C65          C69   1.539       .  S
C65        C1259   1.543       .  S
C66          H73   1.081       .  S
C66          C67   1.371       .  D
C67          C68   1.540       .  S
C67        C1382   1.490       .  S
C68          C72   1.536       .  S
C68          C70   1.542   1_545  S
C68          H74   1.110       .  S
C69          H75   1.085       .  S
C69          C70   1.365       .  D
C70        C1203   1.493       .  S
C71          H76   1.087       .  S
C71          C72   1.365   1_565  D
C72        C1214   1.477       .  S
C77          C78   1.544       .  S
C77          C83   1.532       .  S
C77          C81   1.543       .  S
C77        C1301   1.540       .  S
C78          H85   1.082       .  S
C78          C79   1.367       .  D
C79          C80   1.546       .  S
C79        C1172   1.493       .  S
C80          C84   1.543       .  S
C80          C82   1.548       .  S
C80          H86   1.105       .  S
C81          H87   1.084       .  S
C81          C82   1.371       .  D
C82        C1158   1.511       .  S
C83          H88   1.087       .  S
C83          C84   1.362       .  D
C84        C1186   1.483       .  S
In89         O91   2.232       .  S
In89         O92   2.269       .  S
In89        O100   2.255       .  S
In89         O94   2.233       .  S
In89         O96   2.232       .  S
In89         O97   2.269       .  S
In89         O98   2.238       .  S
In89        O101   2.239       .  S
C90          O96   1.261       .  A
C90          O98   1.263       .  A
C90        C1102   1.481       .  S
O91          C99   1.260       .  A
O92          C99   1.265       .  A
C93         O100   1.261       .  A
C93          O94   1.259       .  A
C93        C1147   1.483       .  S
C95          O97   1.263       .  A
C95         O101   1.257       .  A
C95        C1130   1.483       .  S
C99        C1116   1.490       .  S
In102       O104   2.230       .  S
In102       O105   2.252       .  S
In102       O113   2.250       .  S
In102       O107   2.226       .  S
In102       O109   2.227       .  S
In102       O110   2.267       .  S
In102       O111   2.234       .  S
In102       O114   2.229       .  S
C103        O109   1.261       .  A
C103        O111   1.261       .  A
C103       C1231   1.476       .  S
O104        C112   1.256       .  A
O105        C112   1.263       .  A
C106        O113   1.264       .  A
C106        O107   1.260       .  A
C106       C1144   1.484       .  S
C108        O110   1.264       .  A
C108        O114   1.258       .  A
C108       C1074   1.491       .  S
C112       C1088   1.476       .  S
C115        C116   1.533       .  S
C115        C121   1.532   1_545  S
C115        C119   1.548       .  S
C115       C1060   1.535       .  S
C116        H123   1.087       .  S
C116        C117   1.357   1_545  D
C117        C118   1.539       .  S
C117       C1200   1.478       .  S
C118        C122   1.542       .  S
C118        C120   1.544       .  S
C118        H124   1.110       .  S
C119        H125   1.078       .  S
C119        C120   1.376   1_545  D
C120       C1049   1.497       .  S
C121        H126   1.085       .  S
C121        C122   1.364       .  D
C122       C1091   1.488       .  S
In127       O129   2.236       .  S
In127       O130   2.265       .  S
In127       O138   2.260       .  S
In127       O132   2.233       .  S
In127       O134   2.251       .  S
In127       O135   2.237       .  S
In127       O136   2.233       .  S
In127       O139   2.264       .  S
C128        O134   1.263       .  A
C128        O136   1.260       .  A
C128       C1273   1.485       .  S
O129        C137   1.258       .  A
O130        C137   1.263       .  A
C131        O138   1.263       .  A
C131        O132   1.260       .  A
C131       C1032   1.488       .  S
C133        O135   1.260       .  A
C133        O139   1.261       .  A
C133       C1018   1.492       .  S
C137       C1004   1.487       .  S
In140       O142   2.250       .  S
In140       O143   2.256       .  S
In140       O151   2.267       .  S
In140       O145   2.237       .  S
In140       O147   2.246       .  S
In140       O148   2.258       .  S
In140       O149   2.236       .  S
In140       O152   2.236       .  S
C141        O147   1.263       .  A
C141        O149   1.260       .  A
C141       C1105   1.484       .  S
O142        C150   1.260       .  A
O143        C150   1.261       .  A
C144        O151   1.262       .  A
C144        O145   1.260       .  A
C144       C1035   1.489       .  S
C146        O148   1.263       .  A
C146        O152   1.261       .  A
C146        C993   1.486       .  S
C150       C1441   1.489       .  S
In153       O155   2.244       .  S
In153       O156   2.250       .  S
In153       O164   2.248       .  S
In153       O158   2.244       .  S
In153       O160   2.259       .  S
In153       O161   2.265       .  S
In153       O162   2.219       .  S
In153       O165   2.244       .  S
C154        O160   1.263       .  A
C154        O162   1.259       .  A
C154        C934   1.483       .  S
O155        C163   1.260       .  A
O156        C163   1.261       .  A
C157        O164   1.262       .  A
C157        O158   1.260       .  A
C157        C979   1.483       .  S
C159        O161   1.262       .  A
C159        O165   1.261       .  A
C159        C948   1.491       .  S
C163        C962   1.484       .  S
In166       O168   2.220       .  S
In166       O169   2.258       .  S
In166       O177   2.244       .  S
In166       O171   2.226       .  S
In166       O173   2.251       .  S
In166       O174   2.240       .  S
In166       O175   2.235       .  S
In166       O178   2.251       .  S
C167        O173   1.259       .  A
C167        O175   1.258       .  A
C167       C1357   1.483       .  S
O168        C176   1.261       .  A
O169        C176   1.263       .  A
C170        O177   1.264       .  A
C170        O171   1.261       .  A
C170        C976   1.483       .  S
C172        O174   1.260       .  A
C172        O178   1.258       .  A
C172       C1063   1.480       .  S
C176        C920   1.483       .  S
C179        C180   1.528       .  S
C179        C185   1.537       .  S
C179        C183   1.546       .  S
C179        C965   1.538       .  S
C180        H187   1.087       .  S
C180        C181   1.363       .  D
C181        C182   1.548       .  S
C181        C906   1.491       .  S
C182        C186   1.551       .  S
C182        C184   1.544       .  S
C182        H188   1.102       .  S
C183        H189   1.086       .  S
C183        C184   1.370       .  D
C184       C1161   1.505       .  S
C185        H190   1.081       .  S
C185        C186   1.368       .  D
C186       C1021   1.497       .  S
In191       O193   2.245       .  S
In191       O194   2.222       .  S
In191       O202   2.257       .  S
In191       O196   2.234       .  S
In191       O198   2.258       .  S
In191       O199   2.253       .  S
In191       O200   2.241       .  S
In191       O203   2.229       .  S
C192        O198   1.261       .  A
C192        O200   1.258       .  A
C192       C1329   1.487       .  S
O193        C201   1.260       .  A
O194        C201   1.259       .  A
C195        O202   1.263       .  A
C195        O196   1.261       .  A
C195        C892   1.485       .  S
C197        O199   1.262       .  A
C197        O203   1.261       .  A
C197        C867   1.479       .  S
C201        C878   1.470       .  S
In204       O206   2.233       .  S
In204       O207   2.270       .  S
In204       O215   2.268       .  S
In204       O209   2.230       .  S
In204       O211   2.260       .  S
In204       O212   2.239       .  S
In204       O213   2.232       .  S
In204       O216   2.268       .  S
C205        O211   1.261       .  A
C205        O213   1.258       .  A
C205        C937   1.479       .  S
O206        C214   1.260       .  A
O207        C214   1.263       .  A
C208        O215   1.265       .  A
C208        O209   1.260       .  A
C208        C895   1.486       .  S
C210        O212   1.259       .  A
C210        O216   1.260       .  A
C210       C1189   1.484       .  S
C214        C850   1.488       .  S
C217        C218   1.544       .  S
C217        C223   1.535       .  S
C217        C221   1.532       .  S
C217        C881   1.531       .  S
C218        H225   1.080       .  S
C218        C219   1.370       .  D
C219        C220   1.541   1_655  S
C219        C839   1.490       .  S
C220        C224   1.548       .  S
C220        C222   1.539   1_455  S
C220        H226   1.110       .  S
C221        H227   1.087       .  S
C221        C222   1.358       .  D
C222       C1413   1.473       .  S
C223        H228   1.085       .  S
C223        C224   1.367   1_655  D
C224       C1133   1.497       .  S
In229       O231   2.229       .  S
In229       O232   2.275       .  S
In229       O240   2.260       .  S
In229       O234   2.230       .  S
In229       O236   2.233       .  S
In229       O237   2.260       .  S
In229       O238   2.236       .  S
In229       O241   2.240       .  S
C230        O236   1.262       .  A
C230        O238   1.262       .  A
C230        C794   1.480       .  S
O231        C239   1.258       .  A
O232        C239   1.264       .  A
C233        O240   1.263       .  A
C233        O234   1.259       .  A
C233        C822   1.485       .  S
C235        O237   1.263       .  A
C235        O241   1.257       .  A
C235        C808   1.484       .  S
C239       C1368   1.490       .  S
In242       O244   2.233       .  S
In242       O245   2.273       .  S
In242       O253   2.255       .  S
In242       O247   2.234       .  S
In242       O249   2.231       .  S
In242       O250   2.266       .  S
In242       O251   2.243       .  S
In242       O254   2.240       .  S
C243        O249   1.262       .  A
C243        O251   1.261       .  A
C243        C766   1.480       .  S
O244        C252   1.256       .  A
O245        C252   1.263       .  A
C246        O253   1.262       .  A
C246        O247   1.260       .  A
C246        C825   1.485       .  S
C248        O250   1.263       .  A
C248        O254   1.260       .  A
C248       C1343   1.489       .  S
C252        C783   1.476       .  S
C255        C256   1.537       .  S
C255        C261   1.535       .  S
C255        C259   1.542       .  S
C255        C752   1.540       .  S
C256        H263   1.086       .  S
C256        C257   1.370       .  D
C257        C258   1.545       .  S
C257       C1175   1.488       .  S
C258        C262   1.543       .  S
C258        C260   1.540       .  S
C258        H264   1.111       .  S
C259        H265   1.087       .  S
C259        C260   1.363       .  D
C260        C724   1.491       .  S
C261        H266   1.079       .  S
C261        C262   1.364       .  D
C262        C738   1.483       .  S
In267       O269   2.224       .  S
In267       O270   2.254       .  S
In267       O278   2.249       .  S
In267       O272   2.229       .  S
In267       O274   2.266       .  S
In267       O275   2.226       .  S
In267       O276   2.226       .  S
In267       O279   2.261       .  S
C268        O274   1.263       .  A
C268        O276   1.260       .  A
C268        C699   1.484       .  S
O269        C277   1.261       .  A
O270        C277   1.262       .  A
C271        O278   1.261       .  A
C271        O272   1.262       .  A
C271        C713   1.481       .  S
C273        O275   1.259       .  A
C273        O279   1.260       .  A
C273        C741   1.481       .  S
C277       C1287   1.484       .  S
In280       O282   2.257       .  S
In280       O283   2.230       .  S
In280       O291   2.250       .  S
In280       O285   2.228       .  S
In280       O287   2.264       .  S
In280       O288   2.247       .  S
In280       O289   2.223       .  S
In280       O292   2.231       .  S
C281        O287   1.262       .  A
C281        O289   1.258       .  A
C281        C671   1.483       .  S
O282        C290   1.261       .  A
O283        C290   1.259       .  A
C284        O291   1.262       .  A
C284        O285   1.261       .  A
C284        C710   1.482       .  S
C286        O288   1.262       .  A
C286        O292   1.261       .  A
C286       C1245   1.481       .  S
C290        C685   1.475       .  S
C293        C294   1.538       .  S
C293        C299   1.533   1_565  S
C293        C297   1.544       .  S
C293        C682   1.542       .  S
C294        H301   1.079       .  S
C294        C295   1.364   1_565  D
C295        C296   1.537       .  S
C295       C1217   1.480       .  S
C296        C300   1.543       .  S
C296        C298   1.546       .  S
C296        H302   1.106       .  S
C297        H303   1.086       .  S
C297        C298   1.371   1_565  D
C298        C654   1.505       .  S
C299        H304   1.085       .  S
C299        C300   1.367       .  D
C300        C811   1.494       .  S
C305        C306   1.535   1_455  S
C305        C311   1.534       .  S
C305        C309   1.541       .  S
C305        C640   1.540       .  S
C306        H313   1.078       .  S
C306        C307   1.364       .  D
C307        C308   1.548       .  S
C307        C780   1.485       .  S
C308        C312   1.539   1_655  S
C308        C310   1.551   1_655  S
C308        H314   1.108       .  S
C309        H315   1.084       .  S
C309        C310   1.369       .  D
C310        C626   1.507       .  S
C311        H316   1.086       .  S
C311        C312   1.365       .  D
C312       C1427   1.490       .  S
In317       O319   2.230       .  S
In317       O320   2.253       .  S
In317       O328   2.254       .  S
In317       O322   2.229       .  S
In317       O324   2.248       .  S
In317       O325   2.230       .  S
In317       O326   2.237       .  S
In317       O329   2.249       .  S
C318        O324   1.262       .  A
C318        O326   1.259       .  A
C318        C769   1.483       .  S
O319        C327   1.261       .  A
O320        C327   1.262       .  A
C321        O328   1.262       .  A
C321        O322   1.259       .  A
C321        C612   1.481       .  S
C323        O325   1.260       .  A
C323        O329   1.261       .  A
C323        C598   1.483       .  S
C327        C864   1.482       .  S
In330       O332   2.229       .  S
In330       O333   2.264       .  S
In330       O341   2.251       .  S
In330       O335   2.225       .  S
In330       O337   2.253       .  S
In330       O338   2.275       .  S
In330       O339   2.239       .  S
In330       O342   2.223       .  S
C331        O337   1.261       .  A
C331        O339   1.261       .  A
C331        C584   1.485       .  S
O332        C340   1.258       .  A
O333        C340   1.264       .  A
C334        O341   1.262       .  A
C334        O335   1.261       .  A
C334        C615   1.482       .  S
C336        O338   1.265       .  A
C336        O342   1.259       .  A
C336        C853   1.489       .  S
C340        C755   1.484       .  S
C343        C344   1.537   1_655  S
C343        C349   1.532       .  S
C343        C347   1.541       .  S
C343        C601   1.541       .  S
C344        H351   1.079       .  S
C344        C345   1.364       .  D
C345        C346   1.549       .  S
C345        C570   1.499       .  S
C346        C350   1.550   1_455  S
C346        C348   1.543   1_455  S
C346        H352   1.108       .  S
C347        H353   1.082       .  S
C347        C348   1.368       .  D
C348        C629   1.498       .  S
C349        H354   1.086       .  S
C349        C350   1.369       .  D
C350        C836   1.495   1_655  S
In355       O357   2.252       .  S
In355       O358   2.237       .  S
In355       O366   2.248       .  S
In355       O360   2.225       .  S
In355       O362   2.262       .  S
In355       O363   2.258       .  S
In355       O364   2.219       .  S
In355       O367   2.229       .  S
C356        O362   1.263       .  A
C356        O364   1.258       .  A
C356        C696   1.480       .  S
O357        C365   1.259       .  A
O358        C365   1.261       .  A
C359        O366   1.263       .  A
C359        O360   1.262       .  A
C359        C556   1.482       .  S
C361        O363   1.264       .  A
C361        O367   1.261       .  A
C361       C1007   1.487       .  S
C365        C542   1.480       .  S
In368       O370   2.228       .  S
In368       O371   2.258       .  S
In368       O379   2.254       .  S
In368       O373   2.223       .  S
In368       O375   2.233       .  S
In368       O376   2.256       .  S
In368       O377   2.242       .  S
In368       O380   2.223       .  S
C369        O375   1.261       .  A
C369        O377   1.262       .  A
C369        C531   1.482       .  S
O370        C378   1.259       .  A
O371        C378   1.264       .  A
C372        O379   1.262       .  A
C372        O373   1.258       .  A
C372        C559   1.476       .  S
C374        O376   1.264       .  A
C374        O380   1.258       .  A
C374        C643   1.483       .  S
C378        C990   1.484       .  S
In381       O383   2.234       .  S
In381       O384   2.268       .  S
In381       O392   2.257       .  S
In381       O386   2.237       .  S
In381       O388   2.260       .  S
In381       O389   2.246       .  S
In381       O390   2.230       .  S
In381       O393   2.256       .  S
C382        O388   1.261       .  A
C382        O390   1.258       .  A
C382        C587   1.484       .  S
O383        C391   1.261       .  A
O384        C391   1.264       .  A
C385        O392   1.263       .  A
C385        O386   1.260       .  A
C385        C514   1.486       .  S
C387        O389   1.259       .  A
C387        O393   1.259       .  A
C387        C500   1.481       .  S
C391        C951   1.486       .  S
In394       O396   2.246       .  S
In394       O397   2.245       .  S
In394       O405   2.246       .  S
In394       O399   2.247       .  S
In394       O401   2.242       .  S
In394       O402   2.257       .  S
In394       O403   2.242       .  S
In394       O406   2.217       .  S
C395        O401   1.263       .  A
C395        O403   1.261       .  A
C395        C797   1.483       .  S
O396        C404   1.260       .  A
O397        C404   1.261       .  A
C398        O405   1.260       .  A
C398        O399   1.260       .  A
C398        C517   1.485       .  S
C400        O402   1.264       .  A
C400        O406   1.259       .  A
C400        C923   1.480       .  S
C404        C489   1.483       .  S
C407        C408   1.539       .  S
C407        C413   1.529       .  S
C407        C411   1.545       .  S
C407        C503   1.538       .  S
C408        H415   1.087       .  S
C408        C409   1.365       .  D
C409        C410   1.534       .  S
C409        C727   1.486       .  S
C410        C414   1.543       .  S
C410        C412   1.548       .  S
C410        H416   1.111       .  S
C411        H417   1.082       .  S
C411        C412   1.375       .  D
C412        C909   1.492       .  S
C413        H418   1.087       .  S
C413        C414   1.360       .  D
C414        C545   1.481       .  S
In419       O421   2.282       .  S
In419       O422   2.228       .  S
In419       O430   2.258       .  S
In419       O424   2.242       .  S
In419       O426   2.249       .  S
In419       O427   2.267       .  S
In419       O428   2.234       .  S
In419       O431   2.234       .  S
C420        O426   1.263       .  A
C420        O428   1.258       .  A
C420        C528   1.482       .  S
O421        C429   1.261       .  A
O422        C429   1.259       .  A
C423        O430   1.262       .  A
C423        O424   1.259       .  A
C423        C472   1.488       .  S
C425        O427   1.263       .  A
C425        O431   1.260       .  A
C425       C1119   1.488       .  S
C429        C573   1.490       .  S
In432       O434   2.248       .  S
In432       O435   2.265       .  S
In432       O443   2.252       .  S
In432       O437   2.230       .  S
In432       O439   2.255       .  S
In432       O440   2.234       .  S
In432       O441   2.236       .  S
In432       O444   2.281       .  S
C433        O439   1.260       .  A
C433        O441   1.258       .  A
C433        C668   1.483       .  S
O434        C442   1.260       .  A
O435        C442   1.262       .  A
C436        O443   1.262       .  A
C436        O437   1.260       .  A
C436        C475   1.486       .  S
C438        O440   1.260       .  A
C438        O444   1.261       .  A
C438        C458   1.486       .  S
C442       C1077   1.489       .  S
C445        C446   1.531       .  S
C445        C451   1.539       .  S
C445        C449   1.544       .  S
C445        C486   1.540       .  S
C446        H453   1.085       .  S
C446        C447   1.372       .  D
C447        C448   1.550   1_545  S
C447       C1046   1.496   1_545  S
C448        C452   1.545       .  S
C448        C450   1.539   1_565  S
C448        H454   1.109       .  S
C449        H455   1.086       .  S
C449        C450   1.361       .  D
C450        C657   1.482       .  S
C451        H456   1.079       .  S
C451        C452   1.363   1_545  D
C452        C461   1.494       .  S
C457        C458   1.401       .  A
C457        C462   1.396       .  A
C457        H464   1.084       .  S
C458        C459   1.415       .  A
C459        C460   1.415       .  A
C459        N466   1.436       .  S
C460        C461   1.405       .  A
C460        H465   1.083       .  S
C461        C462   1.415       .  A
C462        N463   1.434       .  S
N463        H467   1.046       .  S
N463        H468   1.046       .  S
N466        H469   1.046       .  S
N466        H470   1.046       .  S
C471        C472   1.406       .  A
C471        C476   1.402       .  A
C471        H478   1.084       .  S
C472        C473   1.417       .  A
C473        C474   1.398       .  A
C473        N480   1.432       .  S
C474        C475   1.405       .  A
C474        H479   1.084       .  S
C475        C476   1.418       .  A
C476        N477   1.432       .  S
N477        H481   1.045       .  S
N477        H482   1.045       .  S
N480        H483   1.044       .  S
N480        H484   1.046       .  S
C485        C486   1.412       .  A
C485        C490   1.401       .  A
C485        H492   1.077       .  S
C486        C487   1.419       .  A
C487        C488   1.407       .  A
C487        N494   1.438       .  S
C488        C489   1.403       .  A
C488        H493   1.083       .  S
C489        C490   1.406       .  A
C490        N491   1.433       .  S
N491        H495   1.046       .  S
N491        H496   1.046       .  S
N494        H497   1.044       .  S
N494        H498   1.046       .  S
C499        C500   1.398       .  A
C499        C504   1.397       .  A
C499        H506   1.084       .  S
C500        C501   1.411       .  A
C501        C502   1.412       .  A
C501        N508   1.437       .  S
C502        C503   1.411       .  A
C502        H507   1.077       .  S
C503        C504   1.420       .  A
C504        N505   1.433       .  S
N505        H509   1.046       .  S
N505        H510   1.046       .  S
N508        H511   1.045       .  S
N508        H512   1.045       .  S
C513        C514   1.406       .  A
C513        C518   1.404       .  A
C513        H520   1.084       .  S
C514        C515   1.411       .  A
C515        C516   1.404       .  A
C515        N522   1.432       .  S
C516        C517   1.405       .  A
C516        H521   1.084       .  S
C517        C518   1.411       .  A
C518        N519   1.432       .  S
N519        H523   1.046       .  S
N519        H524   1.045       .  S
N522        H525   1.046       .  S
N522        H526   1.046       .  S
C527        C528   1.403       .  A
C527        C532   1.402       .  A
C527        H534   1.084       .  S
C528        C529   1.413       .  A
C529        C530   1.402       .  A
C529        N536   1.433       .  S
C530        C531   1.404       .  A
C530        H535   1.084       .  S
C531        C532   1.412       .  A
C532        N533   1.432       .  S
N533        H537   1.046       .  S
N533        H538   1.045       .  S
N536        H539   1.045       .  S
N536        H540   1.046       .  S
C541        C542   1.401       .  A
C541        C546   1.399       .  A
C541        H548   1.084       .  S
C542        C543   1.415       .  A
C543        C544   1.412       .  A
C543        N550   1.437       .  S
C544        C545   1.401       .  A
C544        H549   1.083       .  S
C545        C546   1.411       .  A
C546        N547   1.438       .  S
N547        H551   1.045       .  S
N547        H552   1.045       .  S
N550        H553   1.045       .  S
N550        H554   1.046       .  S
C555        C556   1.405       .  A
C555        C560   1.397       .  A
C555        H562   1.084       .  S
C556        C557   1.417       .  A
C557        C558   1.399       .  A
C557        N564   1.432       .  S
C558        C559   1.402       .  A
C558        H563   1.084       .  S
C559        C560   1.414       .  A
C560        N561   1.433       .  S
N561        H565   1.045       .  S
N561        H566   1.044       .  S
N564        H567   1.045       .  S
N564        H568   1.045       .  S
C569        C570   1.406       .  A
C569        C574   1.396       .  A
C569        H576   1.084       .  S
C570        C571   1.412       .  A
C571        C572   1.419       .  A
C571        N578   1.437       .  S
C572        C573   1.411       .  A
C572        H577   1.083       .  S
C573        C574   1.409       .  A
C574        N575   1.433       .  S
N575        H579   1.046       .  S
N575        H580   1.046       .  S
N578        H581   1.046       .  S
N578        H582   1.045       .  S
C583        C584   1.403       .  A
C583        C588   1.403       .  A
C583        H590   1.083       .  S
C584        C585   1.412       .  A
C585        C586   1.405       .  A
C585        N592   1.432       .  S
C586        C587   1.405       .  A
C586        H591   1.084       .  S
C587        C588   1.415       .  A
C588        N589   1.438       .  S
N589        H593   1.046       .  S
N589        H594   1.046       .  S
N592        H595   1.046       .  S
N592        H596   1.045       .  S
C597        C598   1.404       .  A
C597        C602   1.405       .  A
C597        H604   1.084       .  S
C598        C599   1.413       .  A
C599        C600   1.397       .  A
C599        N606   1.433       .  S
C600        C601   1.412       .  A
C600        H605   1.074       .  S
C601        C602   1.417       .  A
C602        N603   1.433       .  S
N603        H607   1.046       .  S
N603        H608   1.046       .  S
N606        H609   1.045       .  S
N606        H610   1.044       .  S
C611        C612   1.405       .  A
C611        C616   1.408       .  A
C611        H618   1.084       .  S
C612        C613   1.415       .  A
C613        C614   1.395       .  A
C613        N620   1.433       .  S
C614        C615   1.403       .  A
C614        H619   1.084       .  S
C615        C616   1.413       .  A
C616        N617   1.437       .  S
N617        H621   1.045       .  S
N617        H622   1.046       .  S
N620        H623   1.047       .  S
N620        H624   1.043       .  S
C625        C626   1.404   1_655  A
C625        C630   1.399       .  A
C625        H632   1.079       .  S
C626        C627   1.422       .  A
C627        C628   1.411       .  A
C627        N634   1.438       .  S
C628        C629   1.404   1_455  A
C628        H633   1.083       .  S
C629        C630   1.419       .  A
C630        N631   1.433       .  S
N631        H635   1.041       .  S
N631        H636   1.046       .  S
N634        H637   1.046       .  S
N634        H638   1.045       .  S
C639        C640   1.410       .  A
C639        C644   1.397       .  A
C639        H646   1.085       .  S
C640        C641   1.424       .  A
C641        C642   1.410       .  A
C641        N648   1.434       .  S
C642        C643   1.402       .  A
C642        H647   1.083       .  S
C643        C644   1.409       .  A
C644        N645   1.433       .  S
N645        H649   1.045       .  S
N645        H650   1.046       .  S
N648        H651   1.045       .  S
N648        H652   1.046       .  S
C653        C654   1.410   1_565  A
C653        C658   1.401       .  A
C653        H660   1.083       .  S
C654        C655   1.419       .  A
C655        C656   1.410       .  A
C655        N662   1.436       .  S
C656        C657   1.401       .  A
C656        H661   1.083       .  S
C657        C658   1.411   1_545  A
C658        N659   1.438       .  S
N659        H663   1.048       .  S
N659        H664   1.038       .  S
N662        H665   1.044       .  S
N662        H666   1.045       .  S
C667        C668   1.406       .  A
C667        C672   1.408       .  A
C667        H674   1.083       .  S
C668        C669   1.413       .  A
C669        C670   1.401       .  A
C669        N676   1.438       .  S
C670        C671   1.404       .  A
C670        H675   1.084       .  S
C671        C672   1.413       .  A
C672        N673   1.437       .  S
N673        H677   1.046       .  S
N673        H678   1.045       .  S
N676        H679   1.045       .  S
N676        H680   1.046       .  S
C681        C682   1.410       .  A
C681        C686   1.401       .  A
C681        H688   1.084       .  S
C682        C683   1.425       .  A
C683        C684   1.410       .  A
C683        N690   1.434       .  S
C684        C685   1.399       .  A
C684        H689   1.084       .  S
C685        C686   1.408       .  A
C686        N687   1.439       .  S
N687        H691   1.046       .  S
N687        H692   1.046       .  S
N690        H693   1.046       .  S
N690        H694   1.045       .  S
C695        C696   1.405       .  A
C695        C700   1.410       .  A
C695        H702   1.084       .  S
C696        C697   1.412       .  A
C697        C698   1.400       .  A
C697        N704   1.439       .  S
C698        C699   1.404       .  A
C698        H703   1.084       .  S
C699        C700   1.414       .  A
C700        N701   1.437       .  S
N701        H705   1.046       .  S
N701        H706   1.045       .  S
N704        H707   1.046       .  S
N704        H708   1.045       .  S
C709        C710   1.406       .  A
C709        C714   1.405       .  A
C709        H716   1.084       .  S
C710        C711   1.413       .  A
C711        C712   1.403       .  A
C711        N718   1.438       .  S
C712        C713   1.402       .  A
C712        H717   1.083       .  S
C713        C714   1.412       .  A
C714        N715   1.433       .  S
N715        H719   1.046       .  S
N715        H720   1.046       .  S
N718        H721   1.045       .  S
N718        H722   1.046       .  S
C723        C724   1.405       .  A
C723        C728   1.402       .  A
C723        H730   1.084       .  S
C724        C725   1.412       .  A
C725        C726   1.414       .  A
C725        N732   1.436       .  S
C726        C727   1.405       .  A
C726        H731   1.083       .  S
C727        C728   1.409       .  A
C728        N729   1.438       .  S
N729        H733   1.045       .  S
N729        H734   1.046       .  S
N732        H735   1.045       .  S
N732        H736   1.045       .  S
C737        C738   1.404       .  A
C737        C742   1.408       .  A
C737        H744   1.084       .  S
C738        C739   1.408       .  A
C739        C740   1.396       .  A
C739        N746   1.433       .  S
C740        C741   1.402       .  A
C740        H745   1.084       .  S
C741        C742   1.418       .  A
C742        N743   1.432       .  S
N743        H747   1.045       .  S
N743        H748   1.046       .  S
N746        H749   1.045       .  S
N746        H750   1.046       .  S
C751        C752   1.407       .  A
C751        C756   1.399       .  A
C751        H758   1.084       .  S
C752        C753   1.423       .  A
C753        C754   1.411       .  A
C753        N760   1.435       .  S
C754        C755   1.402       .  A
C754        H759   1.084       .  S
C755        C756   1.410       .  A
C756        N757   1.432       .  S
N757        H761   1.045       .  S
N757        H762   1.046       .  S
N760        H763   1.044       .  S
N760        H764   1.048       .  S
C765        C766   1.404       .  A
C765        C770   1.404       .  A
C765        H772   1.083       .  S
C766        C767   1.410       .  A
C767        C768   1.402       .  A
C767        N774   1.433       .  S
C768        C769   1.406       .  A
C768        H773   1.084       .  S
C769        C770   1.414       .  A
C770        N771   1.438       .  S
N771        H775   1.046       .  S
N771        H776   1.045       .  S
N774        H777   1.046       .  S
N774        H778   1.046       .  S
C779        C780   1.400       .  A
C779        C784   1.402       .  A
C779        H786   1.081       .  S
C780        C781   1.418       .  A
C781        C782   1.404       .  A
C781        N788   1.433       .  S
C782        C783   1.401       .  A
C782        H787   1.084       .  S
C783        C784   1.410       .  A
C784        N785   1.433       .  S
N785        H789   1.046       .  S
N785        H790   1.045       .  S
N788        H791   1.045       .  S
N788        H792   1.044       .  S
C793        C794   1.404       .  A
C793        C798   1.403       .  A
C793        H800   1.084       .  S
C794        C795   1.411       .  A
C795        C796   1.402       .  A
C795        N802   1.432       .  S
C796        C797   1.404       .  A
C796        H801   1.084       .  S
C797        C798   1.413       .  A
C798        N799   1.432       .  S
N799        H803   1.046       .  S
N799        H804   1.046       .  S
N802        H805   1.046       .  S
N802        H806   1.045       .  S
C807        C808   1.402       .  A
C807        C812   1.404       .  A
C807        H814   1.084       .  S
C808        C809   1.416       .  A
C809        C810   1.406       .  A
C809        N816   1.438       .  S
C810        C811   1.405       .  A
C810        H815   1.082       .  S
C811        C812   1.413       .  A
C812        N813   1.432       .  S
N813        H817   1.046       .  S
N813        H818   1.046       .  S
N816        H819   1.047       .  S
N816        H820   1.045       .  S
C821        C822   1.405       .  A
C821        C826   1.409       .  A
C821        H828   1.083       .  S
C822        C823   1.412       .  A
C823        C824   1.401       .  A
C823        N830   1.433       .  S
C824        C825   1.404       .  A
C824        H829   1.084       .  S
C825        C826   1.414       .  A
C826        N827   1.437       .  S
N827        H831   1.046       .  S
N827        H832   1.045       .  S
N830        H833   1.046       .  S
N830        H834   1.045       .  S
C835        C836   1.406   1_655  A
C835        C840   1.404       .  A
C835        H842   1.084       .  S
C836        C837   1.412       .  A
C837        C838   1.406       .  A
C837        N844   1.431       .  S
C838        C839   1.403   1_455  A
C838        H843   1.080       .  S
C839        C840   1.410       .  A
C840        N841   1.432       .  S
N841        H845   1.046       .  S
N841        H846   1.045   1_655  S
N844        H847   1.046   1_455  S
N844        H848   1.045       .  S
C849        C850   1.403   1_554  A
C849        C854   1.400       .  A
C849        H856   1.084   1_554  S
C850        C851   1.413   1_556  A
C851        C852   1.411       .  A
C851        N858   1.432   1_554  S
C852        C853   1.407       .  A
C852        H857   1.084       .  S
C853        C854   1.414       .  A
C854        N855   1.433       .  S
N855        H859   1.046       .  S
N855        H860   1.045       .  S
N858        H861   1.046       .  S
N858        H862   1.045       .  S
C863        C864   1.403       .  A
C863        C868   1.399       .  A
C863        H870   1.084       .  S
C864        C865   1.415       .  A
C865        C866   1.409       .  A
C865        N872   1.438       .  S
C866        C867   1.405   1_554  A
C866        H871   1.084   1_554  S
C867        C868   1.407   1_556  A
C868        N869   1.432   1_554  S
N869        H873   1.046       .  S
N869        H874   1.045       .  S
N872        H875   1.045       .  S
N872        H876   1.046       .  S
C877        C878   1.398       .  A
C877        C882   1.396       .  A
C877        H884   1.084       .  S
C878        C879   1.404       .  A
C879        C880   1.405       .  A
C879        N886   1.432       .  S
C880        C881   1.413       .  A
C880        H885   1.076       .  S
C881        C882   1.418       .  A
C882        N883   1.434       .  S
N883        H887   1.046       .  S
N883        H888   1.046       .  S
N886        H889   1.046       .  S
N886        H890   1.046       .  S
C891        C892   1.405       .  A
C891        C896   1.407       .  A
C891        H898   1.084       .  S
C892        C893   1.411       .  A
C893        C894   1.403       .  A
C893        N900   1.433       .  S
C894        C895   1.405       .  A
C894        H899   1.084       .  S
C895        C896   1.411       .  A
C896        N897   1.432       .  S
N897        H901   1.046       .  S
N897        H902   1.046       .  S
N900        H903   1.045       .  S
N900        H904   1.046       .  S
C905        C906   1.405       .  A
C905        C910   1.405       .  A
C905        H912   1.084       .  S
C906        C907   1.410       .  A
C907        C908   1.408       .  A
C907        N914   1.432       .  S
C908        C909   1.406       .  A
C908        H913   1.084       .  S
C909        C910   1.410       .  A
C910        N911   1.432       .  S
N911        H915   1.046       .  S
N911        H916   1.046       .  S
N914        H917   1.045       .  S
N914        H918   1.045       .  S
C919        C920   1.403   1_554  A
C919        C924   1.396       .  A
C919        H926   1.084   1_554  S
C920        C921   1.416   1_556  A
C921        C922   1.410       .  A
C921        N928   1.437       .  S
C922        C923   1.405       .  A
C922        H927   1.084       .  S
C923        C924   1.409       .  A
C924        N925   1.433       .  S
N925        H929   1.046       .  S
N925        H930   1.046       .  S
N928        H931   1.046       .  S
N928        H932   1.046   1_554  S
C933        C934   1.406       .  A
C933        C938   1.408       .  A
C933        H940   1.083       .  S
C934        C935   1.414       .  A
C935        C936   1.401       .  A
C935        N942   1.439       .  S
C936        C937   1.402       .  A
C936        H941   1.084       .  S
C937        C938   1.412       .  A
C938        N939   1.437       .  S
N939        H943   1.046       .  S
N939        H944   1.045       .  S
N942        H945   1.046       .  S
N942        H946   1.046       .  S
C947        C948   1.408   1_554  A
C947        C952   1.412       .  A
C947        H954   1.083   1_554  S
C948        C949   1.414   1_556  A
C949        C950   1.404       .  A
C949        N956   1.438   1_554  S
C950        C951   1.403       .  A
C950        H955   1.084       .  S
C951        C952   1.414       .  A
C952        N953   1.438       .  S
N953        H957   1.046       .  S
N953        H958   1.046       .  S
N956        H959   1.046       .  S
N956        H960   1.046   1_556  S
C961        C962   1.403       .  A
C961        C966   1.401       .  A
C961        H968   1.084       .  S
C962        C963   1.410       .  A
C963        C964   1.409       .  A
C963        N970   1.438       .  S
C964        C965   1.413       .  A
C964        H969   1.076       .  S
C965        C966   1.416       .  A
C966        N967   1.433       .  S
N967        H971   1.046       .  S
N967        H972   1.045       .  S
N970        H973   1.046       .  S
N970        H974   1.045       .  S
C975        C976   1.405       .  A
C975        C980   1.401       .  A
C975        H982   1.084       .  S
C976        C977   1.413       .  A
C977        C978   1.406       .  A
C977        N984   1.437       .  S
C978        C979   1.405       .  A
C978        H983   1.083       .  S
C979        C980   1.410       .  A
C980        N981   1.433       .  S
N981        H985   1.046       .  S
N981        H986   1.046       .  S
N984        H987   1.046       .  S
N984        H988   1.045       .  S
C989        C990   1.405       .  A
C989        C994   1.409       .  A
C989        H996   1.083       .  S
C990        C991   1.411       .  A
C991        C992   1.401       .  A
C991        N998   1.433       .  S
C992        C993   1.404   1_554  A
C992        H997   1.084   1_554  S
C993        C994   1.415   1_556  A
C994        N995   1.437   1_554  S
N995        H999   1.045   1_556  S
N995       H1000   1.046       .  S
N998       H1001   1.046       .  S
N998       H1002   1.046       .  S
C1003      C1004   1.406   1_554  A
C1003      C1008   1.410       .  A
C1003      H1010   1.083   1_554  S
C1004      C1005   1.412   1_556  A
C1005      C1006   1.400       .  A
C1005      N1012   1.433   1_554  S
C1006      C1007   1.404       .  A
C1006      H1011   1.084       .  S
C1007      C1008   1.415       .  A
C1008      N1009   1.437       .  S
N1009      H1013   1.046       .  S
N1009      H1014   1.045       .  S
N1012      H1015   1.046   1_556  S
N1012      H1016   1.046   1_556  S
C1017      C1018   1.411       .  A
C1017      C1022   1.412       .  A
C1017      H1024   1.083       .  S
C1018      C1019   1.417       .  A
C1019      C1020   1.395       .  A
C1019      N1026   1.433       .  S
C1020      C1021   1.407       .  A
C1020      H1025   1.083       .  S
C1021      C1022   1.407       .  A
C1022      N1023   1.431       .  S
N1023      H1027   1.045       .  S
N1023      H1028   1.046       .  S
N1026      H1029   1.045       .  S
N1026      H1030   1.045       .  S
C1031      C1032   1.406       .  A
C1031      C1036   1.411       .  A
C1031      H1038   1.083       .  S
C1032      C1033   1.411       .  A
C1033      C1034   1.401       .  A
C1033      N1040   1.433       .  S
C1034      C1035   1.404       .  A
C1034      H1039   1.084       .  S
C1035      C1036   1.415       .  A
C1036      N1037   1.437       .  S
N1037      H1041   1.046       .  S
N1037      H1042   1.045       .  S
N1040      H1043   1.046       .  S
N1040      H1044   1.045       .  S
C1045      C1046   1.406       .  A
C1045      C1050   1.401       .  A
C1045      H1052   1.084       .  S
C1046      C1047   1.411       .  A
C1047      C1048   1.404       .  A
C1047      N1054   1.430       .  S
C1048      C1049   1.405       .  A
C1048      H1053   1.080       .  S
C1049      C1050   1.418       .  A
C1050      N1051   1.433       .  S
N1051      H1055   1.041   1_565  S
N1051      H1056   1.045       .  S
N1054      H1057   1.045       .  S
N1054      H1058   1.045       .  S
C1059      C1060   1.410       .  A
C1059      C1064   1.404       .  A
C1059      H1066   1.077       .  S
C1060      C1061   1.420       .  A
C1061      C1062   1.397       .  A
C1061      N1068   1.434       .  S
C1062      C1063   1.398       .  A
C1062      H1067   1.084       .  S
C1063      C1064   1.415       .  A
C1064      N1065   1.432       .  S
N1065      H1069   1.044       .  S
N1065      H1070   1.046       .  S
N1068      H1071   1.046       .  S
N1068      H1072   1.046       .  S
C1073      C1074   1.407   1_554  A
C1073      C1078   1.411       .  A
C1073      H1080   1.083   1_554  S
C1074      C1075   1.420   1_556  A
C1075      C1076   1.398       .  A
C1075      N1082   1.433       .  S
C1076      C1077   1.404       .  A
C1076      H1081   1.084       .  S
C1077      C1078   1.414       .  A
C1078      N1079   1.437       .  S
N1079      H1083   1.045       .  S
N1079      H1084   1.046       .  S
N1082      H1085   1.045   1_554  S
N1082      H1086   1.046   1_554  S
C1087      C1088   1.400       .  A
C1087      C1092   1.404       .  A
C1087      H1094   1.084       .  S
C1088      C1089   1.415       .  A
C1089      C1090   1.404       .  A
C1089      N1096   1.439       .  S
C1090      C1091   1.403       .  A
C1090      H1095   1.083       .  S
C1091      C1092   1.415       .  A
C1092      N1093   1.437       .  S
N1093      H1097   1.046       .  S
N1093      H1098   1.045       .  S
N1096      H1099   1.046       .  S
N1096      H1100   1.045       .  S
C1101      C1102   1.403       .  A
C1101      C1106   1.404       .  A
C1101      H1108   1.083       .  S
C1102      C1103   1.414       .  A
C1103      C1104   1.405       .  A
C1103      N1110   1.438       .  S
C1104      C1105   1.404       .  A
C1104      H1109   1.083       .  S
C1105      C1106   1.415       .  A
C1106      N1107   1.438       .  S
N1107      H1111   1.045       .  S
N1107      H1112   1.046       .  S
N1110      H1113   1.046       .  S
N1110      H1114   1.045       .  S
C1115      C1116   1.405   1_554  A
C1115      C1120   1.400       .  A
C1115      H1122   1.084   1_554  S
C1116      C1117   1.416   1_556  A
C1117      C1118   1.413       .  A
C1117      N1124   1.437   1_554  S
C1118      C1119   1.407       .  A
C1118      H1123   1.083       .  S
C1119      C1120   1.410       .  A
C1120      N1121   1.433       .  S
N1121      H1125   1.046       .  S
N1121      H1126   1.045       .  S
N1124      H1127   1.046       .  S
N1124      H1128   1.046   1_556  S
C1129      C1130   1.401       .  A
C1129      C1134   1.408       .  A
C1129      H1136   1.084       .  S
C1130      C1131   1.414       .  A
C1131      C1132   1.407       .  A
C1131      N1138   1.438       .  S
C1132      C1133   1.403       .  A
C1132      H1137   1.082       .  S
C1133      C1134   1.418       .  A
C1134      N1135   1.437       .  S
N1135      H1139   1.046       .  S
N1135      H1140   1.045       .  S
N1138      H1141   1.046       .  S
N1138      H1142   1.045       .  S
C1143      C1144   1.405       .  A
C1143      C1148   1.404       .  A
C1143      H1150   1.084       .  S
C1144      C1145   1.415       .  A
C1145      C1146   1.404       .  A
C1145      N1152   1.438       .  S
C1146      C1147   1.405       .  A
C1146      H1151   1.083       .  S
C1147      C1148   1.410       .  A
C1148      N1149   1.432       .  S
N1149      H1153   1.045       .  S
N1149      H1154   1.046       .  S
N1152      H1155   1.045       .  S
N1152      H1156   1.046       .  S
C1157      C1158   1.410       .  A
C1157      C1162   1.402       .  A
C1157      H1164   1.081       .  S
C1158      C1159   1.415       .  A
C1159      C1160   1.407       .  A
C1159      N1166   1.431       .  S
C1160      C1161   1.408       .  A
C1160      H1165   1.083       .  S
C1161      C1162   1.418       .  A
C1162      N1163   1.432       .  S
N1163      H1167   1.045       .  S
N1163      H1168   1.040       .  S
N1166      H1169   1.046       .  S
N1166      H1170   1.046       .  S
C1171      C1172   1.407       .  A
C1171      C1176   1.409       .  A
C1171      H1178   1.084       .  S
C1172      C1173   1.415       .  A
C1173      C1174   1.398       .  A
C1173      N1180   1.431       .  S
C1174      C1175   1.401       .  A
C1174      H1179   1.084       .  S
C1175      C1176   1.419       .  A
C1176      N1177   1.439       .  S
N1177      H1181   1.046       .  S
N1177      H1182   1.043       .  S
N1180      H1183   1.046       .  S
N1180      H1184   1.042       .  S
C1185      C1186   1.402       .  A
C1185      C1190   1.408       .  A
C1185      H1192   1.083       .  S
C1186      C1187   1.408       .  A
C1187      C1188   1.399       .  A
C1187      N1194   1.432       .  S
C1188      C1189   1.403       .  A
C1188      H1193   1.084       .  S
C1189      C1190   1.418       .  A
C1190      N1191   1.432       .  S
N1191      H1195   1.045       .  S
N1191      H1196   1.045       .  S
N1194      H1197   1.045       .  S
N1194      H1198   1.046       .  S
C1199      C1200   1.399       .  A
C1199      C1204   1.406       .  A
C1199      H1206   1.084       .  S
C1200      C1201   1.407   1_565  A
C1201      C1202   1.404       .  A
C1201      N1208   1.431       .  S
C1202      C1203   1.405   1_545  A
C1202      H1207   1.083       .  S
C1203      C1204   1.417       .  A
C1204      N1205   1.437       .  S
N1205      H1209   1.045       .  S
N1205      H1210   1.046       .  S
N1208      H1211   1.045       .  S
N1208      H1212   1.046       .  S
C1213      C1214   1.400   1_565  A
C1213      C1218   1.398       .  A
C1213      H1220   1.084       .  S
C1214      C1215   1.410       .  A
C1215      C1216   1.411       .  A
C1215      N1222   1.437       .  S
C1216      C1217   1.403       .  A
C1216      H1221   1.084       .  S
C1217      C1218   1.412   1_545  A
C1218      N1219   1.439       .  S
N1219      H1223   1.045       .  S
N1219      H1224   1.045       .  S
N1222      H1225   1.045       .  S
N1222      H1226   1.046       .  S
C1227      C1228   1.404       .  A
C1227      C1232   1.403       .  A
C1227      H1234   1.083       .  S
C1228      C1229   1.413       .  A
C1229      C1230   1.403       .  A
C1229      N1236   1.438       .  S
C1230      C1231   1.403       .  A
C1230      H1235   1.084       .  S
C1231      C1232   1.412       .  A
C1232      N1233   1.438       .  S
N1233      H1237   1.046       .  S
N1233      H1238   1.046       .  S
N1236      H1239   1.046       .  S
N1236      H1240   1.045       .  S
C1241      C1242   1.405       .  A
C1241      C1246   1.406       .  A
C1241      H1248   1.084       .  S
C1242      C1243   1.413       .  A
C1243      C1244   1.399       .  A
C1243      N1250   1.433       .  S
C1244      C1245   1.402       .  A
C1244      H1249   1.084       .  S
C1245      C1246   1.412       .  A
C1246      N1247   1.432       .  S
N1247      H1251   1.046       .  S
N1247      H1252   1.045       .  S
N1250      H1253   1.046       .  S
N1250      H1254   1.046       .  S
C1255      C1256   1.400       .  A
C1255      C1260   1.401       .  A
C1255      H1262   1.084       .  S
C1256      C1257   1.407       .  A
C1257      C1258   1.408       .  A
C1257      N1264   1.438       .  S
C1258      C1259   1.414       .  A
C1258      H1263   1.077       .  S
C1259      C1260   1.432       .  A
C1260      N1261   1.441       .  S
N1261      H1265   1.045       .  S
N1261      H1266   1.038       .  S
N1264      H1267   1.045       .  S
N1264      H1268   1.046       .  S
C1269      C1270   1.405       .  A
C1269      C1274   1.408       .  A
C1269      H1276   1.083       .  S
C1270      C1271   1.414       .  A
C1271      C1272   1.404       .  A
C1271      N1278   1.438       .  S
C1272      C1273   1.405       .  A
C1272      H1277   1.083       .  S
C1273      C1274   1.414       .  A
C1274      N1275   1.438       .  S
N1275      H1279   1.046       .  S
N1275      H1280   1.046       .  S
N1278      H1281   1.045       .  S
N1278      H1282   1.046       .  S
C1283      C1284   1.406       .  A
C1283      C1288   1.411       .  A
C1283      H1290   1.083       .  S
C1284      C1285   1.415       .  A
C1285      C1286   1.400       .  A
C1285      N1292   1.438       .  S
C1286      C1287   1.402       .  A
C1286      H1291   1.084       .  S
C1287      C1288   1.415       .  A
C1288      N1289   1.438       .  S
N1289      H1293   1.045       .  S
N1289      H1294   1.046       .  S
N1292      H1295   1.046   1_554  S
N1292      H1296   1.046       .  S
C1297      C1298   1.399       .  A
C1297      C1302   1.398       .  A
C1297      H1304   1.084       .  S
C1298      C1299   1.415       .  A
C1299      C1300   1.405       .  A
C1299      N1306   1.433       .  S
C1300      C1301   1.412       .  A
C1300      H1305   1.077       .  S
C1301      C1302   1.419       .  A
C1302      N1303   1.433       .  S
N1303      H1307   1.046       .  S
N1303      H1308   1.046       .  S
N1306      H1309   1.046       .  S
N1306      H1310   1.044       .  S
C1311      C1312   1.404       .  A
C1311      C1316   1.402       .  A
C1311      H1318   1.084       .  S
C1312      C1313   1.414       .  A
C1313      C1314   1.406       .  A
C1313      N1320   1.438       .  S
C1314      C1315   1.404       .  A
C1314      H1319   1.084       .  S
C1315      C1316   1.410       .  A
C1316      N1317   1.438       .  S
N1317      H1321   1.046       .  S
N1317      H1322   1.045       .  S
N1320      H1323   1.046       .  S
N1320      H1324   1.046       .  S
C1325      C1326   1.405       .  A
C1325      C1330   1.407       .  A
C1325      H1332   1.083       .  S
C1326      C1327   1.414       .  A
C1327      C1328   1.405       .  A
C1327      N1334   1.438       .  S
C1328      C1329   1.406       .  A
C1328      H1333   1.083       .  S
C1329      C1330   1.413       .  A
C1330      N1331   1.437       .  S
N1331      H1335   1.046       .  S
N1331      H1336   1.045       .  S
N1334      H1337   1.046       .  S
N1334      H1338   1.046       .  S
C1339      C1340   1.406   1_554  A
C1339      C1344   1.409       .  A
C1339      H1346   1.084   1_554  S
C1340      C1341   1.412   1_556  A
C1341      C1342   1.402       .  A
C1341      N1348   1.433   1_554  S
C1342      C1343   1.405       .  A
C1342      H1347   1.084       .  S
C1343      C1344   1.413       .  A
C1344      N1345   1.432       .  S
N1345      H1349   1.045       .  S
N1345      H1350   1.046       .  S
N1348      H1351   1.045       .  S
N1348      H1352   1.046       .  S
C1353      C1354   1.405       .  A
C1353      C1358   1.400       .  A
C1353      H1360   1.084       .  S
C1354      C1355   1.411       .  A
C1355      C1356   1.400       .  A
C1355      N1362   1.433       .  S
C1356      C1357   1.405       .  A
C1356      H1361   1.084       .  S
C1357      C1358   1.417       .  A
C1358      N1359   1.432       .  S
N1359      H1363   1.045       .  S
N1359      H1364   1.045       .  S
N1362      H1365   1.046       .  S
N1362      H1366   1.046       .  S
C1367      C1368   1.407       .  A
C1367      C1372   1.414       .  A
C1367      H1374   1.083       .  S
C1368      C1369   1.412       .  A
C1369      C1370   1.401       .  A
C1369      N1376   1.433       .  S
C1370      C1371   1.404   1_554  A
C1370      H1375   1.084       .  S
C1371      C1372   1.416   1_556  A
C1372      N1373   1.437       .  S
N1373      H1377   1.046       .  S
N1373      H1378   1.045   1_554  S
N1376      H1379   1.046       .  S
N1376      H1380   1.046       .  S
C1381      C1382   1.403       .  A
C1381      C1386   1.405       .  A
C1381      H1388   1.084       .  S
C1382      C1383   1.414       .  A
C1383      C1384   1.407       .  A
C1383      N1390   1.437       .  S
C1384      C1385   1.401       .  A
C1384      H1389   1.084       .  S
C1385      C1386   1.411       .  A
C1386      N1387   1.433       .  S
N1387      H1391   1.046       .  S
N1387      H1392   1.046       .  S
N1390      H1393   1.045       .  S
N1390      H1394   1.046       .  S
C1395      C1396   1.404       .  A
C1395      C1400   1.403       .  A
C1395      H1402   1.084       .  S
C1396      C1397   1.415       .  A
C1397      C1398   1.411       .  A
C1397      N1404   1.437       .  S
C1398      C1399   1.406       .  A
C1398      H1403   1.083       .  S
C1399      C1400   1.410       .  A
C1400      N1401   1.432       .  S
N1401      H1405   1.046       .  S
N1401      H1406   1.045       .  S
N1404      H1407   1.046       .  S
N1404      H1408   1.046       .  S
C1409      C1410   1.406       .  A
C1409      C1414   1.395       .  A
C1409      H1416   1.084       .  S
C1410      C1411   1.412   1_455  A
C1411      C1412   1.404       .  A
C1411      N1418   1.432       .  S
C1412      C1413   1.401       .  A
C1412      H1417   1.082       .  S
C1413      C1414   1.409   1_655  A
C1414      N1415   1.433       .  S
N1415      H1419   1.044   1_455  S
N1415      H1420   1.045       .  S
N1418      H1421   1.046   1_655  S
N1418      H1422   1.046       .  S
C1423      C1424   1.403       .  A
C1423      C1428   1.398       .  A
C1423      H1430   1.084       .  S
C1424      C1425   1.409   1_455  A
C1425      C1426   1.411       .  A
C1425      N1432   1.431       .  S
C1426      C1427   1.406   1_655  A
C1426      H1431   1.083       .  S
C1427      C1428   1.411       .  A
C1428      N1429   1.433       .  S
N1429      H1433   1.046       .  S
N1429      H1434   1.046       .  S
N1432      H1435   1.045       .  S
N1432      H1436   1.046       .  S
C1437      C1438   1.414       .  A
C1437      C1442   1.404       .  A
C1437      H1444   1.074       .  S
C1438      C1439   1.432       .  A
C1439      C1440   1.401       .  A
C1439      N1446   1.435       .  S
C1440      C1441   1.401       .  A
C1440      H1445   1.084       .  S
C1441      C1442   1.407       .  A
C1442      N1443   1.432       .  S
N1443      H1447   1.046       .  S
N1443      H1448   1.046       .  S
N1446      H1449   1.041       .  S
N1446      H1450   1.043       .  S
C1451      C1452   1.404       .  A
C1451      C1456   1.405       .  A
C1451      H1458   1.084       .  S
C1452      C1453   1.413       .  A
C1453      C1454   1.401       .  A
C1453      N1460   1.432       .  S
C1454      C1455   1.408       .  A
C1454      H1459   1.084       .  S
C1455      C1456   1.412       .  A
C1456      N1457   1.432       .  S
N1457      H1461   1.045       .  S
N1457      H1462   1.046       .  S
N1460      H1463   1.045       .  S
N1460      H1464   1.045       .  S
