geometry optimzed in LAMMPS
_audit_creation_date              2020-11-30 
_audit_creation_method            'lammps2cif' 
_symmetry_space_group_name_H-M    'P1' 
_symmetry_Int_Tables_number       1 
_symmetry_cell_setting            triclinic 
loop_ 
_symmetry_equiv_pos_as_xyz 
  x,y,z 
_cell_length_a                    47.92051047 
_cell_length_b                    48.02706324221704 
_cell_length_c                    24.13614670947868 
_cell_angle_alpha                 89.83367920471247 
_cell_angle_beta                  90.25770330810093 
_cell_angle_gamma                 89.78440645915175 
loop_ 
_atom_site_label 
_atom_site_type_symbol 
_atom_site_fract_x 
_atom_site_fract_y 
_atom_site_fract_z 
_atom_site_charge 
In1        In  0.19054387  0.99825231  0.99688430     1.36900
C2          C  0.16147591  0.95607824  0.95597485     0.77000
O3          O  0.19003091  0.02383660  0.91933070    -0.61500
O4          O  0.22432391  0.99637729  0.92970705    -0.52400
C5          C  0.16265199  0.04201768  0.03529463     0.69700
O6          O  0.15127481  0.01875485  0.02665237    -0.47200
C7          C  0.21391573  0.98246119  0.09423578     0.74400
O8          O  0.15051459  0.97852723  0.97236127    -0.59100
O9          O  0.22525412  0.00032652  0.06313677    -0.49200
O10         O  0.18772984  0.95515742  0.96067176    -0.55500
C11         C  0.21194982  0.01386335  0.89882411     0.84500
O12         O  0.18842615  0.04266125  0.02448726    -0.57400
O13         O  0.19207202  0.97206856  0.07416795    -0.60700
In14       In  0.24398692  0.95299386  0.24647201     1.36900
C15         C  0.20270143  0.92375368  0.29122498     0.77000
O16         O  0.27130642  0.95435456  0.32162364    -0.61500
O17         O  0.24195503  0.98713950  0.31319145    -0.52400
C18         C  0.28800996  0.92555193  0.20633513     0.69700
O19         O  0.26525418  0.91397623  0.21869729    -0.47200
C20         C  0.22471101  0.97348655  0.14916123     0.74400
O21         O  0.22524047  0.91303097  0.27455289    -0.59100
O22         O  0.24195081  0.98688134  0.17861160    -0.49200
O23         O  0.20137993  0.94986727  0.28536443    -0.55500
C24         C  0.26050372  0.97562891  0.34299476     0.84500
O25         O  0.28826852  0.95156525  0.21450068    -0.57400
O26         O  0.21677427  0.95106901  0.17077221    -0.60700
In27       In  0.23999454  0.04479824  0.74776926     1.36900
C28         C  0.28383249  0.07112716  0.79030571     0.77000
O29         O  0.21340977  0.04577624  0.82349596    -0.61500
O30         O  0.23875345  0.00998556  0.81344326    -0.52400
C31         C  0.19734862  0.07417435  0.70680793     0.69700
O32         O  0.21941914  0.08510462  0.72540605    -0.47200
C33         C  0.25735163  0.02477390  0.64993367     0.74400
O34         O  0.26170969  0.08320499  0.77445876    -0.59100
O35         O  0.23883938  0.01238700  0.67787047    -0.49200
O36         O  0.28360462  0.04499272  0.78414571    -0.55500
C37         C  0.22181514  0.02315365  0.84388340     0.84500
O38         O  0.19723221  0.04788383  0.70890602    -0.57400
O39         O  0.26765469  0.04562633  0.67363849    -0.60700
In40       In  0.28966007  0.00058414  0.49762588     1.36900
C41         C  0.31952206  0.04301602  0.45926676     0.77000
O42         O  0.29198656  0.97632493  0.41929271    -0.61500
O43         O  0.25607617  0.00173145  0.42925603    -0.52400
C44         C  0.31410400  0.95563285  0.53969385     0.69700
O45         O  0.32673086  0.97844939  0.53326382    -0.47200
C46         C  0.26707878  0.01636310  0.59439801     0.74400
O47         O  0.33020302  0.01996162  0.47346117    -0.59100
O48         O  0.25485065  0.99926082  0.56287327    -0.49200
O49         O  0.29329855  0.04421872  0.46468431    -0.55500
C50         C  0.26956292  0.98519499  0.39839210     0.84500
O51         O  0.28890452  0.95588589  0.52417507    -0.57400
O52         O  0.28904103  0.02640637  0.57446295    -0.60700
In53       In  0.78656984  0.99860351  0.99288318     1.36900
C54         C  0.81576298  0.95747767  0.94829414     0.77000
O55         O  0.78709824  0.96993980  0.06681915    -0.61500
O56         O  0.75365061  0.99867036  0.06191448    -0.52400
C57         C  0.81317364  0.04246509  0.03519681     0.69700
O58         O  0.82493132  0.01949052  0.02505931    -0.47200
C59         C  0.76509172  0.01479976  0.89503166     0.74400
O60         O  0.82652287  0.97962274  0.96658994    -0.59100
O61         O  0.75151010  0.99913745  0.92746414    -0.49200
O62         O  0.78954908  0.95619077  0.95333010    -0.55500
C63         C  0.76605551  0.98015749  0.09027978     0.84500
O64         O  0.78751084  0.04314542  0.02281076    -0.57400
O65         O  0.78807082  0.02292544  0.91425438    -0.60700
In66       In  0.73738377  0.04785845  0.74508316     1.36900
C67         C  0.77978635  0.07744367  0.70519709     0.77000
O68         O  0.76743517  0.04413245  0.81573631    -0.61500
O69         O  0.73546501  0.01396979  0.81259724    -0.52400
C70         C  0.69483802  0.07286711  0.79497889     0.69700
O71         O  0.71743585  0.08507529  0.78351154    -0.47200
C72         C  0.72056452  0.02848424  0.64608963     0.74400
O73         O  0.75756166  0.08841903  0.72327795    -0.59100
O74         O  0.73731077  0.01493367  0.67674649    -0.49200
O75         O  0.78001149  0.05115326  0.70720972    -0.55500
C76         C  0.75558211  0.02419826  0.83968855     0.84500
O77         O  0.69370158  0.04790794  0.77889235    -0.57400
O78         O  0.71148820  0.05059083  0.66750135    -0.60700
In79       In  0.69193001  0.00322001  0.49084775     1.36900
C80         C  0.66466181  0.95952295  0.53032431     0.77000
O81         O  0.69206109  0.97744137  0.41443252    -0.61500
O82         O  0.72751603  0.00292791  0.42726404    -0.52400
C83         C  0.66626798  0.04647157  0.44464218     0.69700
O84         O  0.65365674  0.02423328  0.45687664    -0.47200
C85         C  0.71167121  0.01972693  0.58998776     0.74400
O86         O  0.65280786  0.98234715  0.51844686    -0.59100
O87         O  0.72508069  0.00297831  0.55958560    -0.49200
O88         O  0.69063699  0.95913727  0.52155166    -0.55500
C89         C  0.71494124  0.98599530  0.39580759     0.84500
O90         O  0.69194591  0.04646139  0.45673375    -0.57400
O91         O  0.68954219  0.02890910  0.56831800    -0.60700
In92       In  0.74364808  0.95198985  0.24823619     1.36900
C93         C  0.78849224  0.92803042  0.29350983     0.77000
O94         O  0.76688765  0.94878803  0.16756777    -0.61500
O95         O  0.74181031  0.98465065  0.17844848    -0.52400
C96         C  0.70093552  0.92051404  0.21722290     0.69700
O97         O  0.72416268  0.91066704  0.23297738    -0.47200
C98         C  0.72539292  0.97569556  0.34217532     0.74400
O99         O  0.76665803  0.91488742  0.28076679    -0.59100
O100        O  0.74374240  0.98735149  0.31265388    -0.49200
O101        O  0.78751731  0.95375013  0.28241300    -0.55500
C102        C  0.75769800  0.97103973  0.14661812     0.84500
O103        O  0.69980358  0.94681951  0.21621170    -0.57400
O104        O  0.71584655  0.95365775  0.32189457    -0.60700
C105        C  0.60197120  0.14490851  0.42521614     0.85900
C106        C  0.57040511  0.14360045  0.41053293    -0.54300
C107        C  0.55462856  0.16402511  0.43485722     0.08800
C108        C  0.57188904  0.18397103  0.47086239     0.19800
C109        C  0.61059495  0.17459440  0.40810047    -0.55100
C110        C  0.59491963  0.19487319  0.43257166     0.08900
C111        C  0.60249176  0.14495954  0.48866332    -0.54600
C112        C  0.58661019  0.16496197  0.51273495     0.09500
H113        H  0.56087331  0.12753470  0.38575971     0.14000
H114        H  0.55945007  0.20088774  0.49007112    -0.00300
H115        H  0.62686180  0.17917274  0.37831531     0.14300
H116        H  0.61383273  0.12944847  0.51286270     0.14100
C117        C  0.38646764  0.14199620  0.43899747     0.85900
C118        C  0.37771596  0.17021625  0.41365231    -0.54300
C119        C  0.39277604  0.19212160  0.43365606     0.08800
C120        C  0.41554054  0.18410630  0.47594190     0.19800
C121        C  0.41817188  0.14026312  0.42624179    -0.55100
C122        C  0.43340785  0.16216756  0.44633579     0.08900
C123        C  0.38499426  0.14633501  0.50169669    -0.54600
C124        C  0.40050647  0.16778896  0.52128190     0.09500
H125        H  0.36162036  0.17282997  0.38230555     0.14000
H126        H  0.42738110  0.20229280  0.49165467    -0.00300
H127        H  0.42796791  0.12340930  0.40369304     0.14300
H128        H  0.37404451  0.13214542  0.52918507     0.14100
C129        C  0.59283417  0.36349276  0.42755107     0.85900
C130        C  0.60424638  0.33437770  0.41114321    -0.54300
C131        C  0.58754234  0.31290953  0.42815096     0.08800
C132        C  0.56156631  0.32215816  0.46050781     0.19800
C133        C  0.56295472  0.36372531  0.40305796    -0.55100
C134        C  0.54645575  0.34270460  0.42203456     0.08900
C135        C  0.58903891  0.36131319  0.49063811    -0.54600
C136        C  0.57271152  0.33996194  0.50783142     0.09500
H137        H  0.62287382  0.33059387  0.38704577     0.14000
H138        H  0.54805968  0.30481489  0.47474972    -0.00300
H139        H  0.55484107  0.37967421  0.37562839     0.14300
H140        H  0.59838777  0.37588382  0.51963274     0.14100
C141        C  0.37857449  0.35826511  0.44148873     0.85900
C142        C  0.40959368  0.36314919  0.42625079    -0.54300
C143        C  0.42693910  0.34197261  0.44122386     0.08800
C144        C  0.41234596  0.31757176  0.46972601     0.19800
C145        C  0.37146297  0.33018735  0.41387600    -0.55100
C146        C  0.38922423  0.30904342  0.42890916     0.08900
C147        C  0.37968024  0.35185422  0.50398196    -0.54600
C148        C  0.39666872  0.33025583  0.51861759     0.09500
H149        H  0.41819702  0.38145177  0.40678539     0.14000
H150        H  0.42662530  0.30032848  0.48204941    -0.00300
H151        H  0.35426266  0.32717577  0.38521770     0.14300
H152        H  0.36765812  0.36339054  0.53440898     0.14100
C153        C  0.37704645  0.35164931  0.82926925     0.85900
C154        C  0.37640095  0.32316302  0.85875518    -0.54300
C155        C  0.39682854  0.30515829  0.84204067     0.08800
C156        C  0.41752304  0.31796408  0.80075910     0.19800
C157        C  0.40643929  0.36290513  0.84306835    -0.55100
C158        C  0.42757826  0.34528659  0.82784452     0.08900
C159        C  0.37833088  0.34495023  0.76735159    -0.54600
C160        C  0.39906654  0.32715942  0.75183004     0.09500
H161        H  0.36064562  0.31737710  0.88870112     0.14000
H162        H  0.43454813  0.30345100  0.78956808    -0.00300
H163        H  0.41058721  0.38254598  0.86344461     0.14300
H164        H  0.36351480  0.35372918  0.73778390     0.14100
C165        C  0.59647581  0.35484816  0.82027089     0.85900
C166        C  0.56798775  0.36458540  0.84333847    -0.54300
C167        C  0.54611419  0.34818313  0.82706182     0.08800
C168        C  0.55449270  0.32345470  0.79011841     0.19800
C169        C  0.59864828  0.32424219  0.84012525    -0.55100
C170        C  0.57697397  0.30763596  0.82350086     0.08900
C171        C  0.59198881  0.35276537  0.75759100    -0.54600
C172        C  0.57019556  0.33665672  0.74186471     0.09500
H173        H  0.56521123  0.38266188  0.86962457     0.14000
H174        H  0.53667342  0.31064818  0.77577664    -0.00300
H175        H  0.61552711  0.31602066  0.86533614     0.14300
H176        H  0.60492882  0.36360634  0.72761439     0.14100
C177        C  0.38075405  0.13937138  0.83132534     0.85900
C178        C  0.41015214  0.12783007  0.84634322    -0.54300
C179        C  0.43129866  0.14567816  0.83213605     0.08800
C180        C  0.42141827  0.17294934  0.80474446     0.19800
C181        C  0.37972568  0.16776326  0.86089030    -0.55100
C182        C  0.40060396  0.18556549  0.84580318     0.08900
C183        C  0.38270962  0.14629667  0.76950751    -0.54600
C184        C  0.40360972  0.16372170  0.75564738     0.09500
H185        H  0.41427416  0.10758004  0.86457358     0.14000
H186        H  0.43859187  0.18709525  0.79231248    -0.00300
H187        H  0.36295137  0.17402279  0.88831712     0.14300
H188        H  0.36897046  0.13730229  0.73837281     0.14100
C189        C  0.60091618  0.14048030  0.83628232     0.85900
C190        C  0.60015716  0.17102728  0.85583523    -0.54300
C191        C  0.58031145  0.18699879  0.83020273     0.08800
C192        C  0.56120116  0.17061249  0.79097033     0.19800
C193        C  0.57105038  0.13014772  0.84963817    -0.55100
C194        C  0.55035642  0.14587811  0.82542430     0.08900
C195        C  0.60170516  0.14210324  0.77271600    -0.54600
C196        C  0.58096196  0.15739131  0.74929549     0.09500
H197        H  0.61335849  0.17984488  0.88747156     0.14000
H198        H  0.54453308  0.18341985  0.77120919    -0.00300
H199        H  0.56656899  0.11206707  0.87509763     0.14300
H200        H  0.61742017  0.13159529  0.74790234     0.14100
C201        C  0.38286758  0.85832572  0.56802028     0.85900
C202        C  0.37593139  0.83000043  0.59485421    -0.54300
C203        C  0.39423318  0.80922524  0.58129964     0.08800
C204        C  0.41810254  0.81846341  0.54337704     0.19800
C205        C  0.41342628  0.86393330  0.58656062    -0.55100
C206        C  0.43171905  0.84313372  0.57300534     0.08900
C207        C  0.38572988  0.85239590  0.50580075    -0.54600
C208        C  0.40380397  0.83157083  0.49309069     0.09500
H209        H  0.35744005  0.82636295  0.61965330     0.14000
H210        H  0.43266275  0.80137407  0.53203686    -0.00300
H211        H  0.42080859  0.88245209  0.60713087     0.14300
H212        H  0.37454746  0.86404109  0.47396173     0.14100
C213        C  0.38370308  0.64093321  0.57900704     0.85900
C214        C  0.41496900  0.63738693  0.59536668    -0.54300
C215        C  0.43198662  0.65805987  0.57548865     0.08800
C216        C  0.41628094  0.68066576  0.54255612     0.19800
C217        C  0.37625649  0.67012634  0.60124236    -0.55100
C218        C  0.39292674  0.69083941  0.58106942     0.08900
C219        C  0.38451166  0.64409517  0.51591677    -0.54600
C220        C  0.40113890  0.66471502  0.49703762     0.09500
H221        H  0.42340469  0.62045959  0.61997182     0.14000
H222        H  0.42973527  0.69754963  0.52612794    -0.00300
H223        H  0.35939889  0.67434272  0.62976651     0.14300
H224        H  0.37296966  0.63064651  0.48784858     0.14100
C225        C  0.59870574  0.86048599  0.57088878     0.85900
C226        C  0.56899290  0.86338987  0.59528902    -0.54300
C227        C  0.55178931  0.84153357  0.58371246     0.08800
C228        C  0.56598222  0.81811745  0.55102459     0.19800
C229        C  0.60952799  0.83257363  0.59522967    -0.55100
C230        C  0.59232267  0.81050679  0.58430225     0.08900
C231        C  0.59369360  0.85447009  0.50927708    -0.54600
C232        C  0.57674078  0.83249896  0.49905361     0.09500
H233        H  0.56130847  0.88112693  0.61821697     0.14000
H234        H  0.55229446  0.80015579  0.54125288    -0.00300
H235        H  0.62934360  0.83014187  0.61665456     0.14300
H236        H  0.60251982  0.86696196  0.47608782     0.14100
C237        C  0.60110771  0.64351456  0.55824532     0.85900
C238        C  0.60934896  0.67250475  0.57988999    -0.54300
C239        C  0.59206010  0.69343845  0.56235866     0.08800
C240        C  0.56725491  0.68365890  0.52672415     0.19800
C241        C  0.57058936  0.64013933  0.57851919    -0.55100
C242        C  0.55284206  0.66102318  0.56178831     0.08900
C243        C  0.59799933  0.64688215  0.49543178    -0.54600
C244        C  0.58066199  0.66769706  0.47883923     0.09500
H245        H  0.62694366  0.67635713  0.60708046     0.14000
H246        H  0.55337263  0.70081045  0.51247998    -0.00300
H247        H  0.56303276  0.62321767  0.60391865     0.14300
H248        H  0.60885271  0.63367746  0.46592569     0.14100
C249        C  0.37694783  0.63936949  0.18154361     0.85900
C250        C  0.37470176  0.67097526  0.16773594    -0.54300
C251        C  0.39662694  0.68639518  0.18719922     0.08800
C252        C  0.41901039  0.66901880  0.21713783     0.19800
C253        C  0.40526072  0.63064531  0.15673867    -0.55100
C254        C  0.42710773  0.64613842  0.17599917     0.08900
C255        C  0.38157356  0.63852988  0.24441628    -0.54600
C256        C  0.40331445  0.65395469  0.26318297     0.09500
H257        H  0.35755511  0.68082139  0.14582240     0.14000
H258        H  0.43696203  0.68154646  0.23188287    -0.00300
H259        H  0.40793049  0.61364044  0.12769688     0.14300
H260        H  0.36749332  0.62785887  0.27254743     0.14100
C261        C  0.59532617  0.63611772  0.16464537     0.85900
C262        C  0.56529466  0.62660481  0.15184973    -0.54300
C263        C  0.54539213  0.64467743  0.17061503     0.08800
C264        C  0.55694931  0.67068059  0.19944676     0.19800
C265        C  0.59678089  0.66553190  0.13825898    -0.55100
C266        C  0.57701679  0.68366875  0.15748586     0.08900
C267        C  0.59580237  0.64156255  0.22719876    -0.54600
C268        C  0.57615488  0.65977980  0.24526424     0.09500
H269        H  0.56009978  0.60778460  0.12934890     0.14000
H270        H  0.54069648  0.68517579  0.21505433    -0.00300
H271        H  0.61245554  0.67235529  0.10911843     0.14300
H272        H  0.61103739  0.63210144  0.25505764     0.14100
C273        C  0.38527309  0.85533720  0.17971462     0.85900
C274        C  0.41464498  0.86298840  0.15850852    -0.54300
C275        C  0.43519011  0.84551063  0.17735329     0.08800
C276        C  0.42490429  0.82169106  0.21416609     0.19800
C277        C  0.38177703  0.82446065  0.16087070    -0.55100
C278        C  0.40249489  0.80698418  0.17967865     0.08900
C279        C  0.38831073  0.85309301  0.24285712    -0.54600
C280        C  0.40860564  0.83545226  0.26074784     0.09500
H281        H  0.41902496  0.88007898  0.13059606     0.14000
H282        H  0.44186345  0.80771423  0.22929076    -0.00300
H283        H  0.36433013  0.81640543  0.13739840     0.14300
H284        H  0.37437545  0.86362520  0.27149459     0.14100
C285        C  0.60361465  0.84886263  0.19694873     0.85900
C286        C  0.60641374  0.81974402  0.17090729    -0.54300
C287        C  0.58481511  0.80218844  0.18283112     0.08800
C288        C  0.56165308  0.81576635  0.21745540     0.19800
C289        C  0.57523226  0.85976640  0.17445551    -0.55100
C290        C  0.55342635  0.84220934  0.18532201     0.08900
C291        C  0.59815943  0.84359539  0.25862074    -0.54600
C292        C  0.57648336  0.82638196  0.26923587     0.09500
H293        H  0.62422231  0.81350218  0.14617461     0.14000
H294        H  0.54382455  0.80192337  0.22736118    -0.00300
H295        H  0.57210912  0.87915593  0.15229244     0.14300
H296        H  0.61027692  0.85316505  0.29161861     0.14100
In297      In  0.23893114  0.45272474  0.75537965     1.36900
C298        C  0.28143103  0.42311624  0.79469051     0.77000
O299        O  0.26626484  0.45384154  0.68081949    -0.61500
O300        O  0.23767308  0.48725736  0.68919263    -0.52400
C301        C  0.19634410  0.42527518  0.71183524     0.69700
O302        O  0.21870704  0.41371435  0.72778684    -0.47200
C303        C  0.22224838  0.47245999  0.85420608     0.74400
O304        O  0.25867999  0.41236422  0.77920085    -0.59100
O305        O  0.24050717  0.48492601  0.82579494    -0.49200
O306        O  0.28239731  0.44928731  0.78954987    -0.55500
C307        C  0.25599820  0.47552808  0.65967048     0.84500
O308        O  0.19581171  0.45138352  0.71814594    -0.57400
O309        O  0.21183266  0.45166703  0.83052437    -0.60700
In310      In  0.28650267  0.50161595  0.50755125     1.36900
C311        C  0.31482194  0.54445266  0.54840828     0.77000
O312        O  0.28673919  0.52706852  0.42967156    -0.61500
O313        O  0.25266855  0.49966917  0.44006822    -0.52400
C314        C  0.31232315  0.45702532  0.46927559     0.69700
O315        O  0.32460913  0.47978902  0.47832548    -0.47200
C316        C  0.26549031  0.48541303  0.60498944     0.74400
O317        O  0.32622470  0.52173898  0.53485961    -0.59100
O318        O  0.25234863  0.50230830  0.57390803    -0.49200
O319        O  0.28873661  0.54526913  0.54018087    -0.55500
C320        C  0.26497151  0.51686043  0.40889784     0.84500
O321        O  0.28657465  0.45719277  0.48014192    -0.57400
O322        O  0.28801598  0.47657170  0.58508477    -0.60700
In323      In  0.18938953  0.49809938  0.00524152     1.36900
C324        C  0.16368885  0.54155715  0.95853605     0.77000
O325        O  0.18748051  0.52377312  0.08265540    -0.61500
O326        O  0.22215150  0.49666164  0.07531560    -0.52400
C327        C  0.15912147  0.45637787  0.04431272     0.69700
O328        O  0.14866530  0.47904610  0.02724221    -0.47200
C329        C  0.21266702  0.48096669  0.90988584     0.74400
O330        O  0.15133792  0.51918613  0.97062223    -0.59100
O331        O  0.22449168  0.49877171  0.94046773    -0.49200
O332        O  0.18929809  0.54179869  0.97136084    -0.55500
C333        C  0.20915828  0.51401895  0.10510988     0.84500
O334        O  0.18540581  0.45504597  0.04105455    -0.57400
O335        O  0.19099342  0.47065512  0.93052621    -0.60700
In336      In  0.23618339  0.54601211  0.25657235     1.36900
C337        C  0.27831209  0.57352351  0.21024334     0.77000
O338        O  0.26380385  0.54752645  0.33133706    -0.61500
O339        O  0.23785299  0.51212447  0.32380655    -0.52400
C340        C  0.19380890  0.57300810  0.30387568     0.69700
O341        O  0.21596436  0.58492267  0.28868994    -0.47200
C342        C  0.21821598  0.52343594  0.16081521     0.74400
O343        O  0.25559672  0.58504848  0.22365958    -0.59100
O344        O  0.23671920  0.51166478  0.19034424    -0.49200
O345        O  0.27923889  0.54770498  0.22037483    -0.55500
C346        C  0.25514765  0.52544376  0.35326923     0.84500
O347        O  0.19322957  0.54722274  0.29355610    -0.57400
O348        O  0.20784748  0.54490235  0.18242682    -0.60700
C349        C  0.88038566  0.64224262  0.91809477     0.85900
C350        C  0.87111124  0.67092014  0.89550226    -0.54300
C351        C  0.88703346  0.69245520  0.91433078     0.08800
C352        C  0.91149138  0.68359451  0.95180834     0.19800
C353        C  0.91159481  0.64021370  0.90013299    -0.55100
C354        C  0.92782611  0.66185986  0.91835477     0.08900
C355        C  0.88212127  0.64562682  0.98119374    -0.54600
C356        C  0.89826190  0.66697038  0.99865678     0.09500
H357        H  0.85427678  0.67408870  0.86610105     0.14000
H358        H  0.92452290  0.70115865  0.96679773    -0.00300
H359        H  0.92080394  0.62283380  0.87841000     0.14300
H360        H  0.87217010  0.63142571  0.01013658     0.14100
C361        C  0.88319094  0.86042413  0.91996698     0.85900
C362        C  0.91437161  0.85893120  0.90363054    -0.54300
C363        C  0.92875361  0.83698630  0.92652035     0.08800
C364        C  0.90988692  0.81723097  0.95954518     0.19800
C365        C  0.87148377  0.83226049  0.89922360    -0.55100
C366        C  0.88590114  0.80980900  0.91988910     0.08900
C367        C  0.88267602  0.85775793  0.98313167    -0.54600
C368        C  0.89680466  0.83570262  0.00369334     0.09500
H369        H  0.92434160  0.87414186  0.87732715     0.14000
H370        H  0.92033307  0.79837339  0.97630681    -0.00300
H371        H  0.85470783  0.82992615  0.86936487     0.14300
H372        H  0.87342563  0.87335160  0.01012285     0.14100
C373        C  0.09589148  0.85665979  0.93475288     0.85900
C374        C  0.10807998  0.82831884  0.91543973    -0.54300
C375        C  0.09216540  0.80611149  0.93186851     0.08800
C376        C  0.06632277  0.81389547  0.96554063     0.19800
C377        C  0.06575660  0.85674973  0.91186709    -0.55100
C378        C  0.05004983  0.83465113  0.92890887     0.08900
C379        C  0.09300521  0.85314856  0.99770493    -0.54600
C380        C  0.07735143  0.83122016  0.01365812     0.09500
H381        H  0.12692552  0.82561559  0.89141176     0.14000
H382        H  0.05416933  0.79545951  0.97910172    -0.00300
H383        H  0.05711076  0.87404125  0.88831554     0.14300
H384        H  0.10240978  0.86721537  0.02761928     0.14100
C385        C  0.09674009  0.63849017  0.93280594     0.85900
C386        C  0.06525680  0.63696030  0.91650579    -0.54300
C387        C  0.04905828  0.65750339  0.93978712     0.08800
C388        C  0.06591128  0.67780961  0.97600055     0.19800
C389        C  0.10533761  0.66794538  0.91512764    -0.55100
C390        C  0.08951645  0.68838758  0.93834215     0.08900
C391        C  0.09669959  0.63915407  0.99613772    -0.54600
C392        C  0.08022079  0.65891682  0.01920968     0.09500
H393        H  0.05619877  0.62126647  0.88987828     0.14000
H394        H  0.05341854  0.69508993  0.99358708    -0.00300
H395        H  0.12231682  0.67235437  0.88683268     0.14300
H396        H  0.10893532  0.62463553  0.02098541     0.14100
C397        C  0.10629125  0.85361831  0.32255239     0.85900
C398        C  0.07785506  0.86520206  0.34233665    -0.54300
C399        C  0.05583717  0.84842819  0.32911485     0.08800
C400        C  0.06384755  0.82201304  0.29695322     0.19800
C401        C  0.10754462  0.82411980  0.34836665    -0.55100
C402        C  0.08582942  0.80718139  0.33322875     0.08900
C403        C  0.10220034  0.84883593  0.26023976    -0.54600
C404        C  0.08023690  0.83244064  0.24699839     0.09500
H405        H  0.07487348  0.88440270  0.36500053     0.14000
H406        H  0.04578359  0.80893741  0.28477345    -0.00300
H407        H  0.12450024  0.81711661  0.37493570     0.14300
H408        H  0.11576923  0.85766888  0.22881636     0.14100
C409        C  0.88802869  0.86350469  0.31879376     0.85900
C410        C  0.88540879  0.83174455  0.33147642    -0.54300
C411        C  0.90657357  0.81559579  0.31029112     0.08800
C412        C  0.92871268  0.83291447  0.27978679     0.19800
C413        C  0.91695596  0.87100467  0.34241601    -0.55100
C414        C  0.93808526  0.85519262  0.32129158     0.08900
C415        C  0.89115788  0.86445725  0.25572150    -0.54600
C416        C  0.91214762  0.84868631  0.23543636     0.09500
H417        H  0.86831480  0.82228467  0.35350511     0.14000
H418        H  0.94666873  0.82099831  0.26331998    -0.00300
H419        H  0.92058021  0.88694213  0.37326546     0.14300
H420        H  0.87647368  0.87525752  0.22859347     0.14100
C421        C  0.09669218  0.63906337  0.34121574     0.85900
C422        C  0.09836203  0.66924411  0.36306424    -0.54300
C423        C  0.07846862  0.68684043  0.34154040     0.08800
C424        C  0.05796990  0.67235081  0.30159900     0.19800
C425        C  0.06663173  0.63003875  0.35566630    -0.55100
C426        C  0.04648680  0.64733794  0.33433120     0.08900
C427        C  0.09673287  0.64237349  0.27820277    -0.54600
C428        C  0.07660817  0.65933410  0.25718300     0.09500
H429        H  0.11406862  0.67664305  0.39181959     0.14000
H430        H  0.04139836  0.68597184  0.28407901    -0.00300
H431        H  0.06157680  0.61189857  0.38049032     0.14300
H432        H  0.11135718  0.63137234  0.25165502     0.14100
C433        C  0.87750929  0.64878888  0.30925841     0.85900
C434        C  0.90512188  0.63623083  0.33241119    -0.54300
C435        C  0.92828379  0.65091707  0.31723392     0.08800
C436        C  0.92213054  0.67640875  0.28068193     0.19800
C437        C  0.87783626  0.67941269  0.32935607    -0.55100
C438        C  0.90108609  0.69408226  0.31352672     0.08900
C439        C  0.88242940  0.65067326  0.24671729    -0.54600
C440        C  0.90522937  0.66531346  0.23186244     0.09500
H441        H  0.90678210  0.61803186  0.35877887     0.14000
H442        H  0.94137047  0.68753469  0.26810253    -0.00300
H443        H  0.86023908  0.68901674  0.35007739     0.14300
H444        H  0.86851594  0.64155621  0.21605278     0.14100
C445        C  0.88038452  0.13999702  0.07162197     0.85900
C446        C  0.91191729  0.13739522  0.08758494    -0.54300
C447        C  0.92775261  0.15997149  0.07222167     0.08800
C448        C  0.91069904  0.18265379  0.04242578     0.19800
C449        C  0.87113051  0.16769329  0.09811156    -0.55100
C450        C  0.88691266  0.18992896  0.08230067     0.08900
C451        C  0.88106245  0.14566677  0.00916551    -0.54600
C452        C  0.89699660  0.16752469  0.99382093     0.09500
H453        H  0.92140909  0.11893313  0.10494721     0.14000
H454        H  0.92298532  0.20109597  0.02938485    -0.00300
H455        H  0.85375363  0.16961424  0.12655943     0.14300
H456        H  0.87126467  0.13208333  0.97884257     0.14100
C457        C  0.09637555  0.14164945  0.05730425     0.85900
C458        C  0.10563464  0.17004323  0.08003421    -0.54300
C459        C  0.09005993  0.19178512  0.06073359     0.08800
C460        C  0.06577506  0.18341439  0.02245060     0.19800
C461        C  0.06519078  0.14006179  0.07472612    -0.55100
C462        C  0.04907322  0.16180955  0.05572941     0.08900
C463        C  0.09507613  0.14506261  0.99411870    -0.54600
C464        C  0.07887557  0.16643697  0.97577493     0.09500
H465        H  0.12176989  0.17279517  0.11104779     0.14000
H466        H  0.05348209  0.20163660  0.00782264    -0.00300
H467        H  0.05613303  0.12340205  0.09884278     0.14300
H468        H  0.10500933  0.13055334  0.96579046     0.14100
C469        C  0.87711175  0.35703959  0.08198098     0.85900
C470        C  0.86810612  0.32902891  0.10813289    -0.54300
C471        C  0.88343606  0.30681900  0.08955809     0.08800
C472        C  0.90581263  0.31432436  0.04682574     0.19800
C473        C  0.90898056  0.35844545  0.09489991    -0.55100
C474        C  0.92402319  0.33616223  0.07542456     0.08900
C475        C  0.87562836  0.35224312  0.01945343    -0.54600
C476        C  0.89084718  0.33050022  0.00088988     0.09500
H477        H  0.85173468  0.32693921  0.13875745     0.14000
H478        H  0.91705471  0.29562028  0.03186254    -0.00300
H479        H  0.91912547  0.37540896  0.11631349     0.14300
H480        H  0.86528363  0.36662784  0.99105731     0.14100
C481        C  0.09060606  0.35913951  0.07006263     0.85900
C482        C  0.06026943  0.35848507  0.09112548    -0.54300
C483        C  0.04509054  0.33628449  0.07269816     0.08800
C484        C  0.06222123  0.31589568  0.03738916     0.19800
C485        C  0.10280832  0.33088097  0.09072410    -0.55100
C486        C  0.08747694  0.30846652  0.07358394     0.08900
C487        C  0.08867937  0.35565461  0.00695549    -0.54600
C488        C  0.07396151  0.33323685  0.99013046     0.09500
H489        H  0.05143585  0.37442961  0.11717361     0.14000
H490        H  0.05072953  0.29725954  0.02278205    -0.00300
H491        H  0.12080549  0.32837381  0.11759203     0.14300
H492        H  0.09858299  0.36971042  0.97767761     0.14100
C493        C  0.09919907  0.14271547  0.66740700     0.85900
C494        C  0.07094508  0.13002151  0.64888052    -0.54300
C495        C  0.04840183  0.14640149  0.66170636     0.08800
C496        C  0.05579385  0.17351296  0.69231660     0.19800
C497        C  0.09888713  0.17164423  0.63966100    -0.55100
C498        C  0.07690550  0.18834905  0.65462130     0.08900
C499        C  0.09524546  0.14805793  0.72937144    -0.54600
C500        C  0.07294103  0.16402094  0.74236099     0.09500
H501        H  0.06841582  0.11031493  0.62780281     0.14000
H502        H  0.03742000  0.18610282  0.70461295    -0.00300
H503        H  0.11505591  0.17883549  0.61199850     0.14300
H504        H  0.10898748  0.13942746  0.76111021     0.14100
C505        C  0.88117513  0.14141232  0.68269259     0.85900
C506        C  0.88273961  0.17234276  0.66421262    -0.54300
C507        C  0.90620637  0.18617005  0.68216039     0.08800
C508        C  0.92641324  0.16710425  0.71466933     0.19800
C509        C  0.90838093  0.12841223  0.65976788    -0.55100
C510        C  0.93184181  0.14208952  0.67678371     0.08900
C511        C  0.88572696  0.14211579  0.74555943    -0.54600
C512        C  0.90881646  0.15587833  0.76239104     0.09500
H513        H  0.86586251  0.18270831  0.64213557     0.14000
H514        H  0.94625694  0.17679233  0.72793314    -0.00300
H515        H  0.90953772  0.11070036  0.63221868     0.14300
H516        H  0.87066493  0.13401794  0.77503735     0.14100
C517        C  0.88145685  0.35373646  0.68123217     0.85900
C518        C  0.91054589  0.36450993  0.66419704    -0.54300
C519        C  0.93202408  0.34981303  0.68733841     0.08800
C520        C  0.92290114  0.32504327  0.72295709     0.19800
C521        C  0.88207899  0.32277128  0.66268346    -0.55100
C522        C  0.90412470  0.30755354  0.68418308     0.08900
C523        C  0.88187938  0.35220097  0.74453529    -0.54600
C524        C  0.90293906  0.33695123  0.76628703     0.09500
H525        H  0.91406818  0.38172402  0.63592621     0.14000
H526        H  0.94112903  0.31421790  0.74147809    -0.00300
H527        H  0.86617541  0.31368198  0.63655569     0.14300
H528        H  0.86601021  0.36177156  0.77045041     0.14100
C529        C  0.10076709  0.35508129  0.67920792     0.85900
C530        C  0.10130908  0.32665601  0.64967112    -0.54300
C531        C  0.08117438  0.30853302  0.66719970     0.08800
C532        C  0.06059536  0.32158204  0.70863572     0.19800
C533        C  0.07127552  0.36648460  0.66580382    -0.55100
C534        C  0.05040940  0.34878459  0.68110005     0.08900
C535        C  0.09996511  0.34821762  0.74132478    -0.54600
C536        C  0.07915524  0.33084803  0.75661440     0.09500
H537        H  0.11655045  0.32138614  0.61840126     0.14000
H538        H  0.04349667  0.30758323  0.72209149    -0.00300
H539        H  0.06683440  0.38625097  0.64584387     0.14300
H540        H  0.11445801  0.35701163  0.77128579     0.14100
In541      In  0.73885839  0.44753788  0.74425354     1.36900
C542        C  0.78169915  0.41876227  0.70394537     0.77000
O543        O  0.71314691  0.44820052  0.66574213    -0.61500
O544        O  0.74030815  0.48215817  0.67812116    -0.52400
C545        C  0.69550827  0.42055506  0.78689249     0.69700
O546        O  0.71776630  0.40859544  0.77222192    -0.47200
C547        C  0.75644795  0.46969293  0.84113376     0.74400
O548        O  0.75865593  0.40766265  0.71591396    -0.59100
O549        O  0.73945550  0.48233674  0.80954148    -0.49200
O550        O  0.78262747  0.44466691  0.71276204    -0.55500
C551        C  0.72310616  0.47031801  0.64614659     0.84500
O552        O  0.69535421  0.44659531  0.77909471    -0.57400
O553        O  0.76500046  0.44687769  0.82204715    -0.60700
In554      In  0.69480028  0.50052415  0.49285856     1.36900
C555        C  0.66991872  0.54580209  0.53283785     0.77000
O556        O  0.69219055  0.47308546  0.56831993    -0.61500
O557        O  0.72827343  0.49800617  0.56163019    -0.52400
C558        C  0.66496300  0.45889568  0.45127884     0.69700
O559        O  0.65450075  0.48129715  0.46922075    -0.47200
C560        C  0.71532487  0.51682845  0.39450223     0.74400
O561        O  0.65718118  0.52361130  0.52127319    -0.59100
O562        O  0.72930506  0.50112274  0.42668129    -0.49200
O563        O  0.69587931  0.54494138  0.52383826    -0.55500
C564        C  0.71452111  0.48093293  0.59073190     0.84500
O565        O  0.69131154  0.45788580  0.45397925    -0.57400
O566        O  0.69235619  0.52473912  0.41400340    -0.60700
In567      In  0.78803691  0.49938145  0.99153715     1.36900
C568        C  0.81469320  0.45665700  0.03851422     0.77000
O569        O  0.78974957  0.52469092  0.06925248    -0.61500
O570        O  0.75308668  0.50105214  0.05627386    -0.52400
C571        C  0.81460547  0.54303213  0.94846071     0.69700
O572        O  0.82672001  0.52045416  0.96104382    -0.47200
C573        C  0.76633758  0.48019552  0.89553024     0.74400
O574        O  0.82710996  0.47818580  0.02129211    -0.59100
O575        O  0.75424440  0.49885839  0.92360296    -0.49200
O576        O  0.78860886  0.45693876  0.03056008    -0.55500
C577        C  0.76670447  0.51685380  0.08836331     0.84500
O578        O  0.78866998  0.54313297  0.95773852    -0.57400
O579        O  0.78817318  0.47074851  0.91791966    -0.60700
In580      In  0.73932019  0.54768686  0.24025078     1.36900
C581        C  0.78016242  0.57975051  0.27905913     0.77000
O582        O  0.71231806  0.54652327  0.31554202    -0.61500
O583        O  0.74331692  0.51516819  0.31022777    -0.52400
C584        C  0.69394122  0.57152451  0.19825015     0.69700
O585        O  0.71493107  0.58514329  0.21452385    -0.47200
C586        C  0.75717503  0.52624013  0.14349068     0.74400
O587        O  0.75796688  0.58934776  0.25774567    -0.59100
O588        O  0.73963277  0.51365590  0.17334888    -0.49200
O589        O  0.78145553  0.55345542  0.28028171    -0.55500
C590        C  0.72416476  0.52618705  0.33878933     0.84500
O591        O  0.69591943  0.54548472  0.20477918    -0.57400
O592        O  0.76663380  0.54805973  0.16498177    -0.60700
C593        C  0.82968805  0.35898939  0.66271728    -0.26900
C594        C  0.85616574  0.37176936  0.66527698    -0.15000
C595        C  0.85684805  0.40104161  0.67424871     0.35600
C596        C  0.83204622  0.41612099  0.68128890    -0.26400
C597        C  0.80620376  0.40275278  0.68388307    -0.15600
C598        C  0.80498969  0.37399947  0.67271740     0.36700
N599        N  0.77894177  0.35949863  0.67459774    -0.89900
H600        H  0.82792170  0.33667207  0.65876725     0.17800
H601        H  0.83343072  0.43822233  0.68978581     0.17800
N602        N  0.88270419  0.41539548  0.68198324    -0.88900
H603        H  0.78042465  0.34404032  0.70508230     0.35200
H604        H  0.77588678  0.34973527  0.63640085     0.40300
H605        H  0.88283926  0.42409199  0.72166695     0.39900
H606        H  0.88365923  0.43160806  0.65306764     0.34800
C607        C  0.97549149  0.34684454  0.63164105    -0.26900
C608        C  0.96184344  0.35627903  0.67933863    -0.15000
C609        C  0.97750194  0.36770251  0.72312814     0.35600
C610        C  0.00672198  0.36745093  0.72041321    -0.26400
C611        C  0.02042456  0.35538237  0.67539998    -0.15600
C612        C  0.00486078  0.34632122  0.62924999     0.36700
N613        N  0.01890854  0.33642155  0.58062228    -0.89900
H614        H  0.96329420  0.33839325  0.59777104     0.17800
H615        H  0.01886479  0.37575078  0.75440109     0.17800
N616        N  0.96363781  0.37841557  0.77116133    -0.88900
H617        H  0.00443526  0.33087524  0.55015187     0.35200
H618        H  0.02980355  0.31828285  0.59126477     0.40300
H619        H  0.95186944  0.39571007  0.75865131     0.39900
H620        H  0.97813674  0.38548271  0.80037677     0.34800
C621        C  0.89837265  0.23196833  0.63253649    -0.26900
C622        C  0.90946816  0.21724933  0.67825027    -0.15000
C623        C  0.92211459  0.23280236  0.72121573     0.35600
C624        C  0.92165746  0.26180264  0.71951674    -0.26400
C625        C  0.90814989  0.27665848  0.67702056    -0.15600
C626        C  0.89800719  0.26143596  0.63097151     0.36700
N627        N  0.88787954  0.27572309  0.58249008    -0.89900
H628        H  0.88981508  0.22046364  0.59792557     0.17800
H629        H  0.93031827  0.27229167  0.75505526     0.17800
N630        N  0.93416815  0.21975897  0.76905655    -0.88900
H631        H  0.88154016  0.26150776  0.55224974     0.35200
H632        H  0.90458777  0.28682171  0.56576658     0.40300
H633        H  0.92412726  0.22742570  0.80424930     0.39900
H634        H  0.95516036  0.22556020  0.77143201     0.34800
C635        C  0.00666888  0.12077663  0.69233641    -0.26900
C636        C  0.01903734  0.13816943  0.65277696    -0.15000
C637        C  0.00204452  0.15129153  0.61224647     0.35600
C638        C  0.97293935  0.15000238  0.61738929    -0.26400
C639        C  0.96062753  0.13490475  0.66048007    -0.15600
C640        C  0.97748038  0.11857019  0.69576131     0.36700
N641        N  0.96483329  0.10110304  0.73688308    -0.89900
H642        H  0.01973860  0.11027219  0.72268015     0.17800
H643        H  0.95990002  0.16214894  0.58949230     0.17800
N644        N  0.01351362  0.16591090  0.56561699    -0.88900
H645        H  0.98011555  0.09063130  0.75992009     0.35200
H646        H  0.95336051  0.08585126  0.71598256     0.40300
H647        H  0.03528614  0.16608596  0.56685407     0.39900
H648        H  0.00659110  0.18651293  0.56698627     0.34800
C649        C  0.05558520  0.26488496  0.64597288    -0.26900
C650        C  0.08123869  0.27812954  0.65512349    -0.15000
C651        C  0.10558392  0.26139294  0.66057201     0.35600
C652        C  0.10362099  0.23252597  0.65656605    -0.26400
C653        C  0.07789762  0.21923091  0.64858350    -0.15600
C654        C  0.05368966  0.23577472  0.64266120     0.36700
N655        N  0.02702923  0.22331194  0.63357000    -0.89900
H656        H  0.03662269  0.27711616  0.64282644     0.17800
H657        H  0.12239465  0.22035468  0.66345540     0.17800
N658        N  0.13232042  0.27252041  0.67474326    -0.88900
H659        H  0.01391034  0.22919541  0.66602234     0.35200
H660        H  0.01873342  0.23168133  0.59696256     0.40300
H661        H  0.13037566  0.28498826  0.70988863     0.39900
H662        H  0.13987073  0.28402310  0.64135811     0.34800
C663        C  0.09373348  0.31246596  0.90551431    -0.26900
C664        C  0.07143198  0.32618289  0.93118240    -0.15000
C665        C  0.04954615  0.33721200  0.89888351     0.35600
C666        C  0.05082885  0.33539323  0.84112565    -0.26400
C667        C  0.07434565  0.32413197  0.81531265    -0.15600
C668        C  0.09546201  0.31159273  0.84760241     0.36700
N669        N  0.11912963  0.29899135  0.82157052    -0.89900
H670        H  0.11069153  0.30406693  0.93039626     0.17800
H671        H  0.03447589  0.34484303  0.81659226     0.17800
N672        N  0.02702549  0.35200966  0.92429299    -0.88900
H673        H  0.12024990  0.27821641  0.83449865     0.35200
H674        H  0.13708105  0.30910774  0.83561236     0.40300
H675        H  0.00837838  0.34280776  0.91138577     0.39900
H676        H  0.02712062  0.37244898  0.90925610     0.34800
C677        C  0.87229961  0.40952275  0.09434482    -0.26900
C678        C  0.85935213  0.38312548  0.09338081    -0.15000
C679        C  0.83015415  0.38245293  0.08313012     0.35600
C680        C  0.81563582  0.40696811  0.06897378    -0.26400
C681        C  0.82950205  0.43250014  0.06391269    -0.15600
C682        C  0.85775127  0.43392881  0.07980925     0.36700
N683        N  0.87217437  0.46000467  0.07943856    -0.89900
H684        H  0.89439319  0.41159641  0.10153183     0.17800
H685        H  0.79370852  0.40554420  0.05821094     0.17800
N686        N  0.81550489  0.35652699  0.08210311    -0.88900
H687        H  0.88906286  0.45836125  0.05233933     0.35200
H688        H  0.88005576  0.46349425  0.11926747     0.40300
H689        H  0.80682447  0.35395590  0.04263188     0.39900
H690        H  0.79918554  0.35770676  0.11061939     0.34800
C691        C  0.88758746  0.30804620  0.90900642    -0.26900
C692        C  0.89848966  0.32924758  0.94202654    -0.15000
C693        C  0.91279336  0.35175149  0.91736599     0.35600
C694        C  0.91584885  0.35250739  0.85979862    -0.26400
C695        C  0.90433644  0.33176031  0.82639831    -0.15600
C696        C  0.88927857  0.30975234  0.85129357     0.36700
N697        N  0.87329092  0.29048218  0.81919684    -0.89900
H698        H  0.87559760  0.29145849  0.92785943     0.17800
H699        H  0.92539064  0.37044992  0.84075886     0.17800
N700        N  0.92259304  0.37459201  0.95060276    -0.88900
H701        H  0.88670285  0.27971211  0.79314257     0.35200
H702        H  0.85902942  0.30165602  0.79485065     0.40300
H703        H  0.93857581  0.36721317  0.97629682     0.39900
H704        H  0.93139661  0.39006259  0.92574908     0.34800
C705        C  0.99937930  0.32316985  0.03353632    -0.26900
C706        C  0.01426610  0.33398973  0.07843690    -0.15000
C707        C  0.99936672  0.34351867  0.12518169     0.35600
C708        C  0.96992704  0.34398640  0.12360583    -0.26400
C709        C  0.95513015  0.33437303  0.07699062    -0.15600
C710        C  0.97037571  0.32339458  0.03195616     0.36700
N711        N  0.95689003  0.31339947  0.98291609    -0.89900
H712        H  0.01013483  0.31535203  0.99754911     0.17800
H713        H  0.95850860  0.35156643  0.15916181     0.17800
N714        N  0.01400884  0.35205453  0.17431047    -0.88900
H715        H  0.96260993  0.29255930  0.97739836     0.35200
H716        H  0.96430949  0.32467795  0.94897845     0.40300
H717        H  0.02473970  0.33467355  0.18971319     0.39900
H718        H  0.99995407  0.35814875  0.20504502     0.34800
C719        C  0.05659775  0.14619867  0.83135643    -0.26900
C720        C  0.06607705  0.16902503  0.80080591    -0.15000
C721        C  0.07565715  0.19302439  0.82838578     0.35600
C722        C  0.07736195  0.19289009  0.88668851    -0.26400
C723        C  0.07082558  0.16876347  0.91670940    -0.15600
C724        C  0.05913094  0.14564606  0.88909655     0.36700
N725        N  0.05137476  0.12109746  0.91959074    -0.89900
H726        H  0.04945338  0.12780040  0.80965697     0.17800
H727        H  0.08594713  0.21067843  0.90829991     0.17800
N728        N  0.08521921  0.21660547  0.79705167    -0.88900
H729        H  0.04364958  0.10581740  0.89293641     0.35200
H730        H  0.03503907  0.12647961  0.94608758     0.40300
H731        H  0.10302374  0.21046597  0.77537346     0.39900
H732        H  0.09142683  0.23261179  0.82365483     0.34800
C733        C  0.07188315  0.23411450  0.10450899    -0.26900
C734        C  0.09412156  0.22089247  0.07799964    -0.15000
C735        C  0.11747436  0.23666646  0.06110890     0.35600
C736        C  0.11670326  0.26576968  0.06592890    -0.26400
C737        C  0.09306462  0.27908605  0.08758840    -0.15600
C738        C  0.07127280  0.26303524  0.10977228     0.36700
N739        N  0.04761921  0.27628409  0.13463205    -0.89900
H740        H  0.05410371  0.22206290  0.11823324     0.17800
H741        H  0.13344487  0.27804475  0.04842314     0.17800
N742        N  0.14120089  0.22390313  0.03557851    -0.88900
H743        H  0.02975447  0.27048380  0.11250170     0.35200
H744        H  0.04572697  0.26872359  0.17507819     0.40300
H745        H  0.13444418  0.21291201  0.00070578     0.39900
H746        H  0.14996488  0.20976444  0.06372423     0.34800
C747        C  0.89130135  0.18299400  0.84188632    -0.26900
C748        C  0.91137690  0.16451318  0.82065748    -0.15000
C749        C  0.92967248  0.15067528  0.85693220     0.35600
C750        C  0.92599173  0.15343497  0.91416467    -0.26400
C751        C  0.90500502  0.17082215  0.93543706    -0.15600
C752        C  0.88820817  0.18642819  0.89914248     0.36700
N753        N  0.86691239  0.20438732  0.92043551    -0.89900
H754        H  0.87704604  0.19363813  0.81389434     0.17800
H755        H  0.93837581  0.14057893  0.94193703     0.17800
N756        N  0.95074393  0.13244742  0.83589149    -0.88900
H757        H  0.84768348  0.19767568  0.90492638     0.35200
H758        H  0.87051889  0.22446322  0.90526848     0.40300
H759        H  0.94730549  0.11254406  0.85207932     0.39900
H760        H  0.97008146  0.13936335  0.85049816     0.34800
C761        C  0.00546965  0.15409476  0.11158579    -0.26900
C762        C  0.01805386  0.16278462  0.06182691    -0.15000
C763        C  0.00066950  0.17148664  0.01768232     0.35600
C764        C  0.97176422  0.17074142  0.02351290    -0.26400
C765        C  0.95896747  0.16075115  0.07175677    -0.15600
C766        C  0.97625092  0.15311173  0.11713727     0.36700
N767        N  0.96500123  0.14578966  0.17004090    -0.89900
H768        H  0.01842374  0.14817727  0.14661733     0.17800
H769        H  0.95935556  0.17778885  0.98879927     0.17800
N770        N  0.01191950  0.18026634  0.96566492    -0.88900
H771        H  0.95415059  0.12709094  0.16665695     0.35200
H772        H  0.95122889  0.16148789  0.18239836     0.40300
H773        H  0.00373294  0.16753626  0.93454465     0.39900
H774        H  0.00512787  0.20063288  0.95792832     0.34800
C775        C  0.85660350  0.26262620  0.08855017    -0.26900
C776        C  0.88005616  0.27744915  0.10681548    -0.15000
C777        C  0.90346249  0.26271030  0.12708184     0.35600
C778        C  0.90429386  0.23363589  0.12333808    -0.26400
C779        C  0.88198933  0.21896793  0.09995782    -0.15600
C780        C  0.85747688  0.23339312  0.08471482     0.36700
N781        N  0.83446038  0.21867887  0.06086502    -0.89900
H782        H  0.83868601  0.27381271  0.07217614     0.17800
H783        H  0.92316391  0.22262133  0.13544017     0.17800
N784        N  0.92716979  0.27742139  0.14821301    -0.88900
H785        H  0.83087274  0.22662882  0.02107587     0.35200
H786        H  0.81680112  0.22277192  0.08480243     0.40300
H787        H  0.94448323  0.27220326  0.12410057     0.39900
H788        H  0.93098274  0.27046687  0.18864446     0.34800
C789        C  0.84949176  0.60551241  0.33798366    -0.26900
C790        C  0.84992983  0.63312160  0.31788438    -0.15000
C791        C  0.82506889  0.64384651  0.29352276     0.35600
C792        C  0.80212833  0.62642114  0.28441929    -0.26400
C793        C  0.80308678  0.59813206  0.29856100    -0.15600
C794        C  0.82652381  0.58797029  0.32799390     0.36700
N795        N  0.82755848  0.55961653  0.34644823    -0.89900
H796        H  0.86749366  0.59646029  0.35812106     0.17800
H797        H  0.78406599  0.63486178  0.26293057     0.17800
N798        N  0.82381172  0.67194624  0.27347068    -0.88900
H799        H  0.83034952  0.55959848  0.38943060     0.35200
H800        H  0.84501734  0.55011213  0.32868157     0.40300
H801        H  0.80700983  0.68192374  0.29261847     0.39900
H802        H  0.81984714  0.67145846  0.23084193     0.34800
C803        C  0.00083518  0.66006075  0.37499998    -0.26900
C804        C  0.01607523  0.64260803  0.33994322    -0.15000
C805        C  0.00162810  0.62392573  0.30506769     0.35600
C806        C  0.97237688  0.62476555  0.30262722    -0.26400
C807        C  0.95725114  0.64405978  0.33422065    -0.15600
C808        C  0.97159811  0.66091915  0.37291604     0.36700
N809        N  0.95730023  0.68000316  0.40887695    -0.89900
H810        H  0.01179061  0.67391640  0.40284875     0.17800
H811        H  0.96156725  0.61177034  0.27290072     0.17800
N812        N  0.01617562  0.60523569  0.26916674    -0.88900
H813        H  0.96232286  0.67443420  0.44964495     0.35200
H814        H  0.93570806  0.67783479  0.40563562     0.40300
H815        H  0.02928597  0.59263995  0.29336049     0.39900
H816        H  0.02848574  0.61706391  0.24255754     0.34800
C817        C  0.89547264  0.77044112  0.35907484    -0.26900
C818        C  0.90660192  0.78429550  0.31257567    -0.15000
C819        C  0.91687621  0.76787921  0.26845189     0.35600
C820        C  0.91543631  0.73889086  0.27126613    -0.26400
C821        C  0.90366178  0.72506410  0.31662662    -0.15600
C822        C  0.89405781  0.74106781  0.36174089     0.36700
N823        N  0.88335961  0.72757435  0.41035850    -0.89900
H824        H  0.88814335  0.78252240  0.39393117     0.17800
H825        H  0.92272382  0.72729412  0.23581109     0.17800
N826        N  0.92785800  0.78011045  0.21908877    -0.88900
H827        H  0.87696230  0.74229924  0.43953859     0.35200
H828        H  0.89977881  0.71636384  0.42847258     0.40300
H829        H  0.91662082  0.77234049  0.18528749     0.39900
H830        H  0.94853768  0.77345992  0.21482519     0.34800
C831        C  0.10638171  0.73044751  0.34040422    -0.26900
C832        C  0.08030579  0.71765777  0.34711298    -0.15000
C833        C  0.05648451  0.73456326  0.35364234     0.35600
C834        C  0.05902143  0.76367701  0.35208945    -0.26400
C835        C  0.08494406  0.77651951  0.34333873    -0.15600
C836        C  0.10887667  0.75949628  0.33752764     0.36700
N837        N  0.13549835  0.77132749  0.32491750    -0.89900
H838        H  0.12484767  0.71779935  0.33390102     0.17800
H839        H  0.04036842  0.77622023  0.35640306     0.17800
N840        N  0.02961696  0.72235219  0.36169603    -0.88900
H841        H  0.14237696  0.76295432  0.28740062     0.35200
H842        H  0.14959482  0.76523111  0.35585105     0.40300
H843        H  0.01645875  0.72921328  0.32977256     0.39900
H844        H  0.02158516  0.72973350  0.39913235     0.34800
C845        C  0.98075430  0.84053074  0.37175916    -0.02900
C846        C  0.96787629  0.85907173  0.33473340    -0.15000
C847        C  0.98425333  0.87767233  0.30366065     0.35600
C848        C  0.01349083  0.87560191  0.30649035    -0.26400
C849        C  0.02638395  0.85550581  0.34026544    -0.15600
C850        C  0.00989932  0.83899657  0.37595822     0.36700
N851        N  0.02196475  0.82000281  0.41558330    -0.89900
H852        H  0.96809155  0.82639206  0.39598391     0.17800
H853        H  0.02620159  0.88833554  0.27944746     0.17800
N854        N  0.97111157  0.89720584  0.26659210    -0.88900
H855        H  0.01512154  0.82606602  0.45482829     0.35200
H856        H  0.04366790  0.82174459  0.41666698     0.40300
H857        H  0.95971146  0.91124895  0.29063093     0.39900
H858        H  0.98611808  0.90884269  0.24547976     0.34800
C859        C  0.07491305  0.68515105  0.10807286    -0.26900
C860        C  0.07526989  0.65957078  0.07996459    -0.15000
C861        C  0.07219545  0.63451799  0.11053684     0.35600
C862        C  0.07076892  0.63564799  0.16812587    -0.26400
C863        C  0.07219146  0.66094871  0.19656190    -0.15600
C864        C  0.07358490  0.68610688  0.16645675     0.36700
N865        N  0.07572498  0.71221651  0.19502504    -0.89900
H866        H  0.07713048  0.70429356  0.08467237     0.17800
H867        H  0.06986772  0.61634317  0.19140210     0.17800
N868        N  0.07141448  0.60783184  0.08346689    -0.88900
H869        H  0.07791529  0.72848257  0.16655746     0.35200
H870        H  0.05678329  0.71578200  0.21505650     0.40300
H871        H  0.05334785  0.60690209  0.05923301     0.39900
H872        H  0.07009013  0.59161607  0.11230471     0.34800
C873        C  0.08957789  0.80714598  0.10074073    -0.26900
C874        C  0.07202283  0.82579628  0.07267605    -0.15000
C875        C  0.05369261  0.84305731  0.10274166     0.35600
C876        C  0.05448867  0.84239968  0.16087977    -0.26400
C877        C  0.07391643  0.82560649  0.18889094    -0.15600
C878        C  0.09100087  0.80699867  0.15864980     0.36700
N879        N  0.11133330  0.78921250  0.18495380    -0.89900
H880        H  0.10381977  0.79412580  0.07751524     0.17800
H881        H  0.04162800  0.85673531  0.18429999     0.17800
N882        N  0.03529350  0.86203220  0.07416667    -0.88900
H883        H  0.10647274  0.76868785  0.17469349     0.35200
H884        H  0.11001960  0.79037644  0.22796027     0.40300
H885        H  0.04753351  0.87691005  0.05422085     0.39900
H886        H  0.02289636  0.87290191  0.10241076     0.34800
C887        C  0.07877562  0.76199912  0.88810335    -0.26900
C888        C  0.09803928  0.77649845  0.92093824    -0.15000
C889        C  0.11684651  0.76158801  0.95503581     0.35600
C890        C  0.11486419  0.73237150  0.95802379    -0.26400
C891        C  0.09429537  0.71820592  0.92783709    -0.15600
C892        C  0.07671918  0.73296970  0.89151513     0.36700
N893        N  0.05597013  0.71856965  0.85988746    -0.89900
H894        H  0.06386616  0.77344756  0.86285068     0.17800
H895        H  0.12829884  0.72077984  0.98610070     0.17800
N896        N  0.13629299  0.77632339  0.98954889    -0.88900
H897        H  0.03639749  0.72658198  0.87054837     0.35200
H898        H  0.05936285  0.72285594  0.81799008     0.40300
H899        H  0.15031564  0.78652040  0.96348401     0.39900
H900        H  0.14802802  0.76235024  0.01355446     0.34800
C901        C  0.92337728  0.85474248  0.08218253    -0.26900
C902        C  0.90422318  0.83502707  0.06250160    -0.15000
C903        C  0.88921269  0.81856428  0.09975185     0.35600
C904        C  0.89315701  0.82241075  0.15662393    -0.26400
C905        C  0.91249320  0.84193192  0.17636147    -0.15600
C906        C  0.92784605  0.85807876  0.13899943     0.36700
N907        N  0.94684499  0.87876991  0.15866340    -0.89900
H908        H  0.93430888  0.86807891  0.05323077     0.17800
H909        H  0.88038940  0.81084431  0.18557992     0.17800
N910        N  0.86885340  0.79920919  0.07995208    -0.88900
H911        H  0.94034783  0.89811016  0.14320204     0.35200
H912        H  0.96653874  0.87439385  0.14231146     0.40300
H913        H  0.87400648  0.77954970  0.09569918     0.39900
H914        H  0.84948236  0.80490527  0.09621044     0.34800
C915        C  0.97473924  0.84358046  0.87800353    -0.26900
C916        C  0.95990508  0.83450917  0.92500111    -0.15000
C917        C  0.97529096  0.82433934  0.97104717     0.35600
C918        C  0.00430246  0.82425129  0.96994019    -0.26400
C919        C  0.01912606  0.83371837  0.92394889    -0.15600
C920        C  0.00419531  0.84295778  0.87671343     0.36700
N921        N  0.01883469  0.85121442  0.82754495    -0.89900
H922        H  0.96337119  0.85083158  0.84184746     0.17800
H923        H  0.01518428  0.81756695  0.00706147     0.17800
N924        N  0.96203117  0.81487392  0.02054666    -0.88900
H925        H  0.00478003  0.85738553  0.79656959     0.35200
H926        H  0.02933250  0.83366998  0.81259751     0.40300
H927        H  0.97005172  0.82622123  0.05387173     0.39900
H928        H  0.96757504  0.79400658  0.02674547     0.34800
C929        C  0.87269015  0.59072509  0.89905998    -0.26900
C930        C  0.86085587  0.61742050  0.90665981    -0.15000
C931        C  0.83183674  0.61857571  0.92053670     0.35600
C932        C  0.81680816  0.59400172  0.92938490    -0.26400
C933        C  0.82974777  0.56784863  0.92735029    -0.15600
C934        C  0.85770408  0.56627976  0.91006244     0.36700
N935        N  0.87156960  0.53989389  0.90608574    -0.89900
H936        H  0.89445474  0.58811060  0.88950287     0.17800
H937        H  0.79517488  0.59560850  0.94196639     0.17800
N938        N  0.81711433  0.64415017  0.92994701    -0.88900
H939        H  0.88865212  0.53999840  0.93319583     0.35200
H940        H  0.87912159  0.53777888  0.86573975     0.40300
H941        H  0.81551387  0.65523100  0.89285977     0.39900
H942        H  0.82730396  0.65588283  0.96019341     0.34800
C943        C  0.91943429  0.64840954  0.08446751    -0.26900
C944        C  0.90539215  0.67028145  0.05754650    -0.15000
C945        C  0.89574814  0.69316261  0.08808740     0.35600
C946        C  0.89846307  0.69286198  0.14603364    -0.26400
C947        C  0.91113485  0.67012169  0.17307898    -0.15600
C948        C  0.92253875  0.64830705  0.14198676     0.36700
N949        N  0.93555284  0.62510610  0.16925711    -0.89900
H950        H  0.92689651  0.63072865  0.06088228     0.17800
H951        H  0.88878906  0.70928105  0.17001473     0.17800
N952        N  0.88160163  0.71566841  0.06072465    -0.88900
H953        H  0.95591596  0.62327228  0.15428809     0.35200
H954        H  0.92467189  0.60708784  0.15840457     0.40300
H955        H  0.86157414  0.71741679  0.07741503     0.39900
H956        H  0.89243048  0.73398091  0.06952806     0.34800
C957        C  0.97134532  0.66166443  0.97315739    -0.26900
C958        C  0.95891597  0.66079020  0.92072722    -0.15000
C959        C  0.97630544  0.65933621  0.87365283     0.35600
C960        C  0.00556848  0.65845045  0.88052266    -0.26400
C961        C  0.01794541  0.65903553  0.93364893    -0.15600
C962        C  0.00014687  0.66048750  0.98035749     0.36700
N963        N  0.01018595  0.65906520  0.03615199    -0.89900
H964        H  0.95850439  0.66283645  0.00965962     0.17800
H965        H  0.01872096  0.65753017  0.84417051     0.17800
N966        N  0.96493361  0.65965434  0.81870654    -0.88900
H967        H  0.02130771  0.67700361  0.04567014     0.35200
H968        H  0.02276884  0.64144793  0.04030417     0.40300
H969        H  0.95253627  0.67748027  0.81427134     0.39900
H970        H  0.95224410  0.64219115  0.81375298     0.34800
C971        C  0.90344371  0.73708286  0.87686198    -0.26900
C972        C  0.88183462  0.72208169  0.90149630    -0.15000
C973        C  0.85846950  0.73637746  0.92302759     0.35600
C974        C  0.85865347  0.76573904  0.92434638    -0.26400
C975        C  0.88148686  0.78057849  0.90349879    -0.15600
C976        C  0.90332964  0.76616430  0.87735242     0.36700
N977        N  0.92621806  0.78110855  0.85377991    -0.89900
H978        H  0.92133370  0.72614441  0.86009522     0.17800
H979        H  0.84200650  0.77692132  0.94497206     0.17800
N980        N  0.83583231  0.72109772  0.94721741    -0.88900
H981        H  0.92764323  0.77568365  0.81199034     0.35200
H982        H  0.94456109  0.77459533  0.87367241     0.40300
H983        H  0.82591441  0.71026320  0.91529186     0.39900
H984        H  0.82092088  0.73476945  0.96337580     0.34800
C985        C  0.14768290  0.63011456  0.36454935    -0.26900
C986        C  0.12076417  0.61901153  0.35570725    -0.15000
C987        C  0.11910087  0.59060708  0.33976628     0.35600
C988        C  0.14344293  0.57546171  0.32769093    -0.26400
C989        C  0.16978263  0.58804039  0.32904925    -0.15600
C990        C  0.17190371  0.61524491  0.35097543     0.36700
N991        N  0.19819574  0.62889556  0.35824363    -0.89900
H992        H  0.15045544  0.65154878  0.37648266     0.17800
H993        H  0.14135338  0.55432084  0.31269298     0.17800
N994        N  0.09264346  0.57760246  0.33071561    -0.88900
H995        H  0.20728400  0.63213100  0.31952749     0.35200
H996        H  0.21117518  0.61613380  0.38236466     0.40300
H997        H  0.09161736  0.55993479  0.35602360     0.39900
H998        H  0.09159323  0.57113739  0.28942345     0.34800
C999        C  0.16109907  0.59239554  0.93971034    -0.26900
C1000       C  0.14897240  0.56607819  0.93447173    -0.15000
C1001       C  0.12184308  0.56406639  0.91178683     0.35600
C1002       C  0.10603234  0.58845745  0.90256973    -0.26400
C1003       C  0.11668139  0.61493085  0.91596142    -0.15600
C1004       C  0.14531467  0.61668150  0.93129821     0.36700
N1005       N  0.15767350  0.64295583  0.94467780    -0.89900
H1006       H  0.18222648  0.59429081  0.95543706     0.17800
H1007       H  0.08459613  0.58613933  0.88975633     0.17800
N1008       N  0.10989002  0.53722555  0.90078313    -0.88900
H1009       H  0.17526405  0.64559816  0.91975548     0.35200
H1010       H  0.16426145  0.64233979  0.98602195     0.40300
H1011       H  0.12173159  0.52794378  0.86952179     0.39900
H1012       H  0.08960610  0.53928179  0.88516568     0.34800
C1013       C  0.11265683  0.43523699  0.05658484    -0.26900
C1014       C  0.14151555  0.43304116  0.06380790    -0.15000
C1015       C  0.15273273  0.40807781  0.08525956     0.35600
C1016       C  0.13522790  0.38509729  0.09430233    -0.26400
C1017       C  0.10646306  0.38621918  0.08150759    -0.15600
C1018       C  0.09514055  0.41251040  0.06440613     0.36700
N1019       N  0.06629463  0.41688480  0.05071018    -0.89900
H1020       H  0.10354232  0.45449363  0.04132730     0.17800
H1021       H  0.14507661  0.36587917  0.10701482     0.17800
N1022       N  0.18205430  0.40548088  0.09587867    -0.88900
H1023       H  0.05424548  0.41597238  0.08650749     0.35200
H1024       H  0.05955615  0.40252446  0.02121060     0.40300
H1025       H  0.18977810  0.38914853  0.07179276     0.39900
H1026       H  0.18477297  0.40009853  0.13758172     0.34800
C1027       C  0.12335290  0.40288942  0.66723062    -0.26900
C1028       C  0.12619253  0.37362906  0.66933967    -0.15000
C1029       C  0.15328021  0.36241294  0.67820499     0.35600
C1030       C  0.17594787  0.37994831  0.68717213    -0.26400
C1031       C  0.17258344  0.40881806  0.69016374    -0.15600
C1032       C  0.14622069  0.42057806  0.67768894     0.36700
N1033       N  0.14230223  0.45026084  0.67871925    -0.89900
H1034       H  0.10305816  0.41232403  0.66191784     0.17800
H1035       H  0.19608231  0.37051902  0.69592310     0.17800
N1036       N  0.15767096  0.33303004  0.68335758    -0.88900
H1037       H  0.12149454  0.45546943  0.67065576     0.35200
H1038       H  0.15397219  0.45866970  0.64621267     0.40300
H1039       H  0.16563335  0.32885778  0.72295686     0.39900
H1040       H  0.17263733  0.32703846  0.65431223     0.34800
C1041       C  0.47967575  0.86921145  0.19844030    -0.26900
C1042       C  0.46521610  0.84937106  0.16715859    -0.15000
C1043       C  0.48014563  0.82989280  0.13555052     0.35600
C1044       C  0.50938441  0.82965418  0.13769157    -0.26400
C1045       C  0.52388109  0.84823022  0.17195697    -0.15600
C1046       C  0.50900296  0.86875619  0.20139967     0.36700
N1047       N  0.52354573  0.88752310  0.23758055    -0.89900
H1048       H  0.46799952  0.88377029  0.22364354     0.17800
H1049       H  0.52073931  0.81401984  0.11466657     0.17800
N1050       N  0.46558022  0.80959312  0.10319907    -0.88900
H1051       H  0.50944685  0.90020319  0.25873918     0.35200
H1052       H  0.53551680  0.90075032  0.21277911     0.40300
H1053       H  0.47151279  0.78981677  0.11723759     0.39900
H1054       H  0.47202563  0.81160712  0.06205214     0.34800
C1055       C  0.64260386  0.57283696  0.18208838    -0.26900
C1056       C  0.66875881  0.58523393  0.17524212    -0.15000
C1057       C  0.67028139  0.61172748  0.15071446     0.35600
C1058       C  0.64577226  0.62661741  0.13911315    -0.26400
C1059       C  0.61920590  0.61579783  0.15206977    -0.15600
C1060       C  0.61793586  0.58788808  0.17158824     0.36700
N1061       N  0.59176784  0.57545813  0.18552098    -0.89900
H1062       H  0.64117868  0.55217320  0.19999856     0.17800
H1063       H  0.64836651  0.64770102  0.12477672     0.17800
N1064       N  0.69680297  0.62410701  0.13922393    -0.88900
H1065       H  0.59219075  0.57015663  0.22756550     0.35200
H1066       H  0.58968337  0.55713610  0.16260894     0.40300
H1067       H  0.69808255  0.64286227  0.16096433     0.39900
H1068       H  0.69757556  0.62865899  0.09687128     0.34800
C1069       C  0.60570235  0.72623465  0.16562857    -0.26900
C1070       C  0.57985864  0.71422493  0.15259409    -0.15000
C1071       C  0.55641756  0.73148820  0.14491185     0.35600
C1072       C  0.55891296  0.76025608  0.15211942    -0.26400
C1073       C  0.58435131  0.77222001  0.16813475    -0.15600
C1074       C  0.60809128  0.75494512  0.17501662     0.36700
N1075       N  0.63399562  0.76616266  0.19508876    -0.89900
H1076       H  0.62364722  0.71290319  0.17289110     0.17800
H1077       H  0.54053972  0.77312392  0.14685989     0.17800
N1078       N  0.52989181  0.71987148  0.13072845    -0.88900
H1079       H  0.64927459  0.75061678  0.19791951     0.35200
H1080       H  0.63063909  0.77324406  0.23543149     0.40300
H1081       H  0.52320555  0.72889597  0.09348813     0.39900
H1082       H  0.51562957  0.72539147  0.16152013     0.34800
C1083       C  0.32518514  0.63209039  0.15870743    -0.26900
C1084       C  0.35189031  0.62055007  0.16854704    -0.15000
C1085       C  0.35347131  0.59175421  0.18152506     0.35600
C1086       C  0.32904504  0.57637556  0.19033118    -0.26400
C1087       C  0.30265620  0.58905796  0.18798257    -0.15600
C1088       C  0.30079390  0.61688924  0.16878980     0.36700
N1089       N  0.27455008  0.63072901  0.16063823    -0.89900
H1090       H  0.32256146  0.65370562  0.14778357     0.17800
H1091       H  0.33101001  0.55484485  0.20338951     0.17800
N1092       N  0.37993137  0.57852975  0.19086786    -0.88900
H1093       H  0.26462224  0.63293607  0.19880387     0.35200
H1094       H  0.26220255  0.61863663  0.13427444     0.40300
H1095       H  0.38151853  0.56159826  0.16392204     0.39900
H1096       H  0.38039279  0.57090611  0.23148735     0.34800
C1097       C  0.39335415  0.73132329  0.13366446    -0.26900
C1098       C  0.39784712  0.71733235  0.18423662    -0.15000
C1099       C  0.40378365  0.73307512  0.23201920     0.35600
C1100       C  0.40533646  0.76198159  0.22867726    -0.26400
C1101       C  0.40082741  0.77610871  0.17864129    -0.15600
C1102       C  0.39499333  0.76067353  0.13031117     0.36700
N1103       N  0.39133017  0.77472499  0.07816409    -0.89900
H1104       H  0.38908514  0.71931128  0.09668321     0.17800
H1105       H  0.40953273  0.77345921  0.26630579     0.17800
N1106       N  0.40730453  0.72001837  0.28488805    -0.88900
H1107       H  0.38733650  0.76034456  0.04666631     0.35200
H1108       H  0.41022683  0.78432066  0.06841504     0.40300
H1109       H  0.39237983  0.72824209  0.31183021     0.39900
H1110       H  0.42705205  0.72516411  0.30026499     0.34800
C1111       C  0.47128646  0.62195339  0.19637487    -0.26900
C1112       C  0.45658150  0.64088962  0.16276486    -0.15000
C1113       C  0.47137378  0.65872326  0.12670284     0.35600
C1114       C  0.50056776  0.65780170  0.12677379    -0.26400
C1115       C  0.51520222  0.64045004  0.16349053    -0.15600
C1116       C  0.50053368  0.62222312  0.19825666     0.36700
N1117       N  0.51520309  0.60546999  0.23809805    -0.89900
H1118       H  0.46001180  0.60846260  0.22441393     0.17800
H1119       H  0.51194671  0.67161140  0.09960678     0.17800
N1120       N  0.45763573  0.67889343  0.09172670    -0.88900
H1121       H  0.50816090  0.61097957  0.27755728     0.35200
H1122       H  0.50994338  0.58466334  0.23126182     0.40300
H1123       H  0.43598296  0.67732581  0.09414360     0.39900
H1124       H  0.46280209  0.67423264  0.05071284     0.34800
C1125       C  0.61245431  0.59318302  0.58497685    -0.26900
C1126       C  0.62218027  0.61975674  0.56924701    -0.15000
C1127       C  0.65046907  0.62161017  0.55072444     0.35600
C1128       C  0.66638329  0.59737500  0.54306949    -0.26400
C1129       C  0.65509218  0.57099273  0.55272791    -0.15600
C1130       C  0.62845147  0.56907801  0.57654900     0.36700
N1131       N  0.61704342  0.54246640  0.59067173    -0.89900
H1132       H  0.59161307  0.59009620  0.60010010     0.17800
H1133       H  0.68718190  0.59919814  0.52598919     0.17800
N1134       N  0.66346383  0.64746459  0.53628321    -0.88900
H1135       H  0.59852889  0.53983006  0.56823594     0.35200
H1136       H  0.61214090  0.54260345  0.63283244     0.40300
H1137       H  0.66548558  0.65971419  0.57166315     0.39900
H1138       H  0.65175199  0.65790786  0.50612666     0.34800
C1139       C  0.60069245  0.67910426  0.38803010    -0.26900
C1140       C  0.57675208  0.67358619  0.41928341    -0.15000
C1141       C  0.55122846  0.66826492  0.39186390     0.35600
C1142       C  0.55075033  0.66618293  0.33397322    -0.26400
C1143       C  0.57537966  0.66910175  0.30343134    -0.15600
C1144       C  0.60014804  0.67748497  0.33026597     0.36700
N1145       N  0.62493010  0.68306881  0.29878881    -0.89900
H1146       H  0.62036167  0.68288365  0.40895048     0.17800
H1147       H  0.53160448  0.66013305  0.31325848     0.17800
N1148       N  0.52613783  0.66262887  0.42178079    -0.88900
H1149       H  0.64144450  0.68861079  0.32499291     0.35200
H1150       H  0.62077416  0.70042883  0.27391150     0.40300
H1151       H  0.52141498  0.67995076  0.44613779     0.39900
H1152       H  0.52968498  0.64554271  0.44780645     0.34800
C1153       C  0.58117963  0.80237154  0.41633392    -0.26900
C1154       C  0.56854212  0.82522237  0.44219287    -0.15000
C1155       C  0.55292273  0.84438577  0.41060440     0.35600
C1156       C  0.55228719  0.84195825  0.35291385    -0.26400
C1157       C  0.56778413  0.82113285  0.32655910    -0.15600
C1158       C  0.58126740  0.80044816  0.35832175     0.36700
N1159       N  0.59697994  0.77893825  0.33164943    -0.89900
H1160       H  0.59321349  0.78757707  0.44059634     0.17800
H1161       H  0.54215068  0.85806946  0.32854319     0.17800
N1162       N  0.53967609  0.86761853  0.43688813    -0.88900
H1163       H  0.58932383  0.75974910  0.34505216     0.35200
H1164       H  0.61776965  0.78048253  0.34476892     0.40300
H1165       H  0.51846650  0.86725693  0.42675122     0.39900
H1166       H  0.54814594  0.88587970  0.42049699     0.34800
C1167       C  0.61513150  0.76850293  0.54881750    -0.26900
C1168       C  0.60007193  0.78094334  0.59177779    -0.15000
C1169       C  0.58605413  0.76386124  0.63042305     0.35600
C1170       C  0.58446754  0.73509334  0.62105518    -0.26400
C1171       C  0.59722406  0.72307595  0.57486044    -0.15600
C1172       C  0.61360825  0.73983678  0.53964917     0.36700
N1173       N  0.62725527  0.72862981  0.49207053    -0.89900
H1174       H  0.62598895  0.78145843  0.51909790     0.17800
H1175       H  0.57261643  0.72216482  0.64922830     0.17800
N1176       N  0.57277293  0.77509358  0.67866924    -0.88900
H1177       H  0.61187357  0.72070422  0.46588189     0.35200
H1178       H  0.64030286  0.71233195  0.50490043     0.40300
H1179       H  0.57691997  0.79635564  0.68237184     0.39900
H1180       H  0.58192901  0.76563950  0.71334175     0.34800
C1181       C  0.37337661  0.59031497  0.60412136    -0.26900
C1182       C  0.36304914  0.61720363  0.59169264    -0.15000
C1183       C  0.33440789  0.61928735  0.57510380     0.35600
C1184       C  0.31889971  0.59524739  0.56462806    -0.26400
C1185       C  0.33074198  0.56869771  0.56973806    -0.15600
C1186       C  0.35783586  0.56630788  0.59278036     0.36700
N1187       N  0.37051641  0.53984176  0.60426597    -0.89900
H1188       H  0.39448212  0.58714540  0.61833987     0.17800
H1189       H  0.29776796  0.59754907  0.54899707     0.17800
N1190       N  0.32061904  0.64532566  0.56491121    -0.88900
H1191       H  0.37361132  0.52924876  0.56706702     0.35200
H1192       H  0.35711923  0.52835527  0.62956669     0.40300
H1193       H  0.31963192  0.65658401  0.60161080     0.39900
H1194       H  0.33124230  0.65652507  0.53446101     0.34800
C1195       C  0.42929570  0.66126831  0.41162142    -0.26900
C1196       C  0.40433298  0.66924229  0.43729832    -0.15000
C1197       C  0.38057226  0.67503574  0.40500678     0.35600
C1198       C  0.38142026  0.67102137  0.34809317    -0.26400
C1199       C  0.40558541  0.66096017  0.32245481    -0.15600
C1200       C  0.43009886  0.65681787  0.35427666     0.36700
N1201       N  0.45518444  0.64595560  0.33060560    -0.89900
H1202       H  0.44747479  0.65623647  0.43667682     0.17800
H1203       H  0.36270138  0.67497930  0.32385638     0.17800
N1204       N  0.35504847  0.68367639  0.43032106    -0.88900
H1205       H  0.46218840  0.65970699  0.30021461     0.35200
H1206       H  0.45052592  0.62686362  0.31218405     0.40300
H1207       H  0.33968164  0.66902510  0.42080838     0.39900
H1208       H  0.34909188  0.70270961  0.41266898     0.34800
C1209       C  0.50778015  0.63493936  0.56171448    -0.26900
C1210       C  0.52209235  0.65998246  0.57131170    -0.15000
C1211       C  0.50665542  0.68378418  0.58653261     0.35600
C1212       C  0.47740742  0.68236834  0.59038500    -0.26400
C1213       C  0.46305481  0.65757526  0.57895693    -0.15600
C1214       C  0.47853582  0.63364214  0.56457013     0.36700
N1215       N  0.46461145  0.60845334  0.54926917    -0.89900
H1216       H  0.51922929  0.61655319  0.54899992     0.17800
H1217       H  0.46580967  0.70094288  0.60139472     0.17800
N1218       N  0.52055024  0.70941837  0.59848131    -0.88900
H1219       H  0.47186155  0.59247871  0.57518906     0.35200
H1220       H  0.47021492  0.60357866  0.50862584     0.40300
H1221       H  0.51556619  0.71522994  0.63894093     0.39900
H1222       H  0.51268803  0.72470634  0.57161490     0.34800
C1223       C  0.38617789  0.81482876  0.40369114    -0.26900
C1224       C  0.40896838  0.82392830  0.43505993    -0.15000
C1225       C  0.43402514  0.83137362  0.40845586     0.35600
C1226       C  0.43453382  0.83295444  0.35020855    -0.26400
C1227       C  0.41047731  0.82704461  0.31935668    -0.15600
C1228       C  0.38679672  0.81621938  0.34598826     0.36700
N1229       N  0.36286938  0.80787529  0.31441865    -0.89900
H1230       H  0.36709120  0.80860457  0.42419021     0.17800
H1231       H  0.45290979  0.84067828  0.32922286     0.17800
N1232       N  0.45795744  0.83940227  0.44055923    -0.88900
H1233       H  0.34577688  0.81974951  0.32734341     0.35200
H1234       H  0.35878974  0.78699703  0.32357753     0.40300
H1235       H  0.47427546  0.84521297  0.41444082     0.39900
H1236       H  0.46489634  0.82179156  0.46217415     0.34800
C1237       C  0.47624138  0.82081001  0.60034410    -0.26900
C1238       C  0.46230782  0.84466478  0.58147897    -0.15000
C1239       C  0.47791906  0.86836864  0.56647731     0.35600
C1240       C  0.50715188  0.86747872  0.57104909    -0.26400
C1241       C  0.52103797  0.84328897  0.58938404    -0.15600
C1242       C  0.50530753  0.81997576  0.60540568     0.36700
N1243       N  0.51884525  0.79566457  0.62751157    -0.89900
H1244       H  0.46439506  0.80257576  0.61065753     0.17800
H1245       H  0.51920926  0.88519824  0.55718701     0.17800
N1246       N  0.46429194  0.89258518  0.54373771    -0.88900
H1247       H  0.50442871  0.77975571  0.63439443     0.35200
H1248       H  0.52647612  0.80129833  0.66648535     0.40300
H1249       H  0.45497881  0.88684132  0.50627083     0.39900
H1250       H  0.47888041  0.90800740  0.53424666     0.34800
C1251       C  0.36961515  0.76550331  0.55943728    -0.26900
C1252       C  0.38922711  0.77943453  0.59220663    -0.15000
C1253       C  0.40662454  0.76407687  0.62808230     0.35600
C1254       C  0.40625262  0.73488627  0.62640729    -0.26400
C1255       C  0.38800225  0.72083945  0.59081949    -0.15600
C1256       C  0.36832040  0.73636155  0.55918556     0.36700
N1257       N  0.34764867  0.72347117  0.52461770    -0.89900
H1258       H  0.35598613  0.77731600  0.53205617     0.17800
H1259       H  0.42098440  0.72315674  0.65153633     0.17800
N1260       N  0.42472887  0.77800669  0.66615042    -0.88900
H1261       H  0.32809602  0.73012184  0.53833958     0.35200
H1262       H  0.34777986  0.70194691  0.52986813     0.40300
H1263       H  0.41826321  0.77285357  0.70618074     0.39900
H1264       H  0.44476332  0.76971113  0.66143387     0.34800
C1265       C  0.47511239  0.13695854  0.78306162    -0.26900
C1266       C  0.46137516  0.13879951  0.83385648    -0.15000
C1267       C  0.47709861  0.13891058  0.88339971     0.35600
C1268       C  0.50656612  0.13915017  0.88049143    -0.26400
C1269       C  0.52013276  0.13955104  0.82895485    -0.15600
C1270       C  0.50416921  0.13711069  0.78018057     0.36700
N1271       N  0.51737553  0.13513573  0.72729685    -0.89900
H1272       H  0.46321264  0.13666041  0.74494551     0.17800
H1273       H  0.51885321  0.14075123  0.91812486     0.17800
N1274       N  0.46320072  0.13997227  0.93596983    -0.88900
H1275       H  0.51036752  0.15171446  0.70266660     0.35200
H1276       H  0.51079130  0.11664614  0.70868213     0.40300
H1277       H  0.45262156  0.15902567  0.93824201     0.39900
H1278       H  0.47778536  0.13978117  0.96828169     0.34800
C1279       C  0.64878053  0.36165195  0.83543006    -0.26900
C1280       C  0.62192128  0.37370044  0.83019143    -0.15000
C1281       C  0.62038908  0.40256824  0.81765654     0.35600
C1282       C  0.64481504  0.41793200  0.80835899    -0.26400
C1283       C  0.67111460  0.40510462  0.80884085    -0.15600
C1284       C  0.67320736  0.37695342  0.82522607     0.36700
N1285       N  0.70005454  0.36354959  0.82901422    -0.89900
H1286       H  0.65123964  0.33967216  0.84301336     0.17800
H1287       H  0.64289840  0.43963187  0.79644775     0.17800
N1288       N  0.59396968  0.41605233  0.80972182    -0.88900
H1289       H  0.69799826  0.34259994  0.84014837     0.35200
H1290       H  0.71111416  0.37311115  0.86112612     0.40300
H1291       H  0.59314636  0.42389561  0.76926993     0.39900
H1292       H  0.59282251  0.43284764  0.83707508     0.34800
C1293       C  0.60290603  0.26260853  0.82313640    -0.26900
C1294       C  0.57747944  0.27674813  0.83037689    -0.15000
C1295       C  0.55312725  0.26100006  0.84016521     0.35600
C1296       C  0.55454374  0.23177362  0.84130226    -0.26400
C1297       C  0.57990616  0.21783076  0.83347579    -0.15600
C1298       C  0.60429677  0.23350422  0.82427618     0.36700
N1299       N  0.63033929  0.21999903  0.81315155    -0.89900
H1300       H  0.62176450  0.27410704  0.81408086     0.17800
H1301       H  0.53567245  0.21991339  0.84823566     0.17800
N1302       N  0.52691455  0.27440223  0.84970272    -0.88900
H1303       H  0.64489041  0.22672331  0.84256705     0.35200
H1304       H  0.63717488  0.22639327  0.77406197     0.40300
H1305       H  0.51954767  0.26778195  0.88823856     0.39900
H1306       H  0.51281179  0.26759381  0.81950099     0.34800
C1307       C  0.30153097  0.37720418  0.81974267    -0.26900
C1308       C  0.30511005  0.40598458  0.81537599    -0.15000
C1309       C  0.33156981  0.41731122  0.82705176     0.35600
C1310       C  0.35432102  0.39956397  0.83846567    -0.26400
C1311       C  0.35140102  0.37035052  0.83831351    -0.15600
C1312       C  0.32413103  0.35942791  0.83015052     0.36700
N1313       N  0.31934624  0.33008394  0.82815719    -0.89900
H1314       H  0.28125620  0.36806934  0.81176072     0.17800
H1315       H  0.37459017  0.40902323  0.84295552     0.17800
N1316       N  0.33586604  0.44677571  0.82484211    -0.88900
H1317       H  0.31106747  0.32514403  0.78926343     0.35200
H1318       H  0.30448936  0.32509853  0.85817010     0.40300
H1319       H  0.35108654  0.45085970  0.79501397     0.39900
H1320       H  0.34358543  0.45313859  0.86332442     0.34800
C1321       C  0.42082245  0.26100623  0.86813542    -0.26900
C1322       C  0.39606674  0.27467510  0.85234881    -0.15000
C1323       C  0.37240424  0.25845690  0.83817742     0.35600
C1324       C  0.37398418  0.22952550  0.84045617    -0.26400
C1325       C  0.39886084  0.21593890  0.85483472    -0.15600
C1326       C  0.42242160  0.23178507  0.86922568     0.36700
N1327       N  0.44807287  0.21827318  0.88413045    -0.89900
H1328       H  0.43926699  0.27305484  0.87791091     0.17800
H1329       H  0.35600890  0.21753736  0.82735575     0.17800
N1330       N  0.34701109  0.27042824  0.81763255    -0.88900
H1331       H  0.46350371  0.22496801  0.85670527     0.35200
H1332       H  0.45367265  0.22482531  0.92391123     0.40300
H1333       H  0.35150381  0.28375847  0.78457713     0.39900
H1334       H  0.33755528  0.28136717  0.84972664     0.34800
C1335       C  0.47260968  0.33630502  0.87548709    -0.26900
C1336       C  0.45762699  0.35166357  0.83570605    -0.15000
C1337       C  0.47216803  0.37056287  0.80104722     0.35600
C1338       C  0.50143791  0.37138211  0.80363922    -0.26400
C1339       C  0.51644821  0.35394083  0.83972016    -0.15600
C1340       C  0.50181017  0.33775239  0.87883273     0.36700
N1341       N  0.51590673  0.32200173  0.92133264    -0.89900
H1342       H  0.46156604  0.32245028  0.90323910     0.17800
H1343       H  0.51260189  0.38439872  0.77460879     0.17800
N1344       N  0.45829487  0.38818548  0.76112750    -0.88900
H1345       H  0.50904405  0.32949118  0.95955980     0.35200
H1346       H  0.53741368  0.32539579  0.92049375     0.40300
H1347       H  0.43675454  0.38510175  0.76077551     0.39900
H1348       H  0.46547555  0.38280906  0.72176216     0.34800
C1349       C  0.36776713  0.40850953  0.41239002    -0.26900
C1350       C  0.35798026  0.38237317  0.43066584    -0.15000
C1351       C  0.32983331  0.38104333  0.44935125     0.35600
C1352       C  0.31496249  0.40565625  0.45923049    -0.26400
C1353       C  0.32701123  0.43179565  0.44980238    -0.15600
C1354       C  0.35313188  0.43304225  0.42319358     0.36700
N1355       N  0.36577833  0.45886233  0.40744427    -0.89900
H1356       H  0.38761936  0.41090438  0.39246697     0.17800
H1357       H  0.29422549  0.40424210  0.47675236     0.17800
N1358       N  0.31576244  0.35525995  0.45968875    -0.88900
H1359       H  0.37070164  0.47015667  0.44306383     0.35200
H1360       H  0.35163892  0.47019266  0.38306019     0.40300
H1361       H  0.32658707  0.34348706  0.48910635     0.39900
H1362       H  0.31444754  0.34414741  0.42267179     0.34800
C1363       C  0.42445277  0.31930287  0.60393853    -0.26900
C1364       C  0.39858801  0.32025026  0.57667144    -0.15000
C1365       C  0.37416774  0.31473275  0.60688656     0.35600
C1366       C  0.37563156  0.31322973  0.66473989    -0.26400
C1367       C  0.40093630  0.31769942  0.69307290    -0.15600
C1368       C  0.42594545  0.31810370  0.66195904     0.36700
N1369       N  0.45295292  0.31837914  0.68737070    -0.89900
H1370       H  0.44351072  0.32107463  0.58048426     0.17800
H1371       H  0.35650997  0.31079952  0.68805202     0.17800
N1372       N  0.34784037  0.31188197  0.57873056    -0.88900
H1373       H  0.45580788  0.29964883  0.70873133     0.35200
H1374       H  0.45395587  0.33491964  0.71512423     0.40300
H1375       H  0.34919175  0.29426776  0.55349343     0.39900
H1376       H  0.33184139  0.30809438  0.60703938     0.34800
C1377       C  0.63905667  0.38745620  0.40384566    -0.26900
C1378       C  0.61025614  0.38973967  0.41571387    -0.15000
C1379       C  0.59988241  0.41667781  0.43022351     0.35600
C1380       C  0.61819876  0.43876945  0.43772179    -0.26400
C1381       C  0.64704227  0.43556825  0.43205840    -0.15600
C1382       C  0.65753601  0.40996256  0.41214684     0.36700
N1383       N  0.68688323  0.40643541  0.40209796    -0.89900
H1384       H  0.64798096  0.36768249  0.39237031     0.17800
H1385       H  0.60957435  0.45852231  0.45110500     0.17800
N1386       N  0.57103921  0.42250381  0.44095900    -0.88900
H1387       H  0.69080849  0.38720190  0.38353354     0.35200
H1388       H  0.69696276  0.40584944  0.44062088     0.40300
H1389       H  0.56311222  0.40896607  0.47083516     0.39900
H1390       H  0.55964090  0.42145431  0.40415474     0.34800
C1391       C  0.55594505  0.35931651  0.59653403    -0.26900
C1392       C  0.56550894  0.33616399  0.56686572    -0.15000
C1393       C  0.57067982  0.31093796  0.59501730     0.35600
C1394       C  0.56931773  0.31020560  0.65327333    -0.26400
C1395       C  0.56247985  0.33435678  0.68292927    -0.15600
C1396       C  0.55413311  0.35847153  0.65419889     0.36700
N1397       N  0.54515378  0.38262776  0.68392250    -0.89900
H1398       H  0.55110435  0.37859251  0.57502127     0.17800
H1399       H  0.57561661  0.29150165  0.67533008     0.17800
N1400       N  0.57902880  0.28669491  0.56492903    -0.88900
H1401       H  0.52503374  0.38774337  0.67027122     0.35200
H1402       H  0.55838127  0.39911676  0.67377826     0.40300
H1403       H  0.56449806  0.27104903  0.57293000     0.39900
H1404       H  0.59849457  0.28017970  0.57995147     0.34800
C1405       C  0.50323616  0.35317738  0.47181488    -0.26900
C1406       C  0.51570452  0.34476038  0.42214447    -0.15000
C1407       C  0.49866457  0.33727839  0.37658049     0.35600
C1408       C  0.46959270  0.33658254  0.38353305    -0.26400
C1409       C  0.45741193  0.34367538  0.43432987    -0.15600
C1410       C  0.47424168  0.35318098  0.47806360     0.36700
N1411       N  0.46179658  0.36290541  0.52851991    -0.89900
H1412       H  0.51623485  0.35979275  0.50602875     0.17800
H1413       H  0.45644705  0.33064256  0.34898341     0.17800
N1414       N  0.50994971  0.32994586  0.32349176    -0.88900
H1415       H  0.47715892  0.36904790  0.55684125     0.35200
H1416       H  0.45002070  0.38066047  0.51905049     0.40300
H1417       H  0.53149273  0.33284085  0.32264929     0.39900
H1418       H  0.50169710  0.34389147  0.29431456     0.34800
C1419       C  0.39994306  0.19358155  0.61117766    -0.26900
C1420       C  0.40715404  0.16970528  0.58093307    -0.15000
C1421       C  0.41800810  0.14610297  0.60867426     0.35600
C1422       C  0.41918435  0.14593108  0.66637979    -0.26400
C1423       C  0.40991372  0.16879076  0.69697801    -0.15600
C1424       C  0.40094094  0.19320453  0.66960621     0.36700
N1425       N  0.39081821  0.21644295  0.70117801    -0.89900
H1426       H  0.39172170  0.21164700  0.58950562     0.17800
H1427       H  0.42528133  0.12698716  0.68778276     0.17800
N1428       N  0.42618832  0.12172548  0.57812416    -0.88900
H1429       H  0.38434662  0.23254687  0.67478466     0.35200
H1430       H  0.40755184  0.22415473  0.72436351     0.40300
H1431       H  0.44319737  0.12703564  0.55336679     0.39900
H1432       H  0.43306114  0.10596016  0.60488900     0.34800
C1433       C  0.36277704  0.26477276  0.43058978    -0.26900
C1434       C  0.38613517  0.27968325  0.41241044    -0.15000
C1435       C  0.40936990  0.26525643  0.39122712     0.35600
C1436       C  0.41022580  0.23614419  0.39449447    -0.26400
C1437       C  0.38802226  0.22135210  0.41757119    -0.15600
C1438       C  0.36367943  0.23557543  0.43372639     0.36700
N1439       N  0.34095027  0.22062510  0.45785975    -0.89900
H1440       H  0.34495485  0.27581269  0.44734153     0.17800
H1441       H  0.42886681  0.22503374  0.38187809     0.17800
N1442       N  0.43262705  0.28042982  0.36936777    -0.88900
H1443       H  0.33785969  0.22819853  0.49795715     0.35200
H1444       H  0.32299720  0.22494094  0.43458702     0.40300
H1445       H  0.42558295  0.29084041  0.33381582     0.39900
H1446       H  0.44840997  0.26682428  0.35669536     0.34800
C1447       C  0.57652013  0.13863971  0.59834858    -0.26900
C1448       C  0.58117030  0.16455802  0.57303928    -0.15000
C1449       C  0.58236230  0.18876490  0.60595410     0.35600
C1450       C  0.58026180  0.18624557  0.66390474    -0.26400
C1451       C  0.57799855  0.15999668  0.68884787    -0.15600
C1452       C  0.57552814  0.13609509  0.65580393     0.36700
N1453       N  0.57260707  0.10910773  0.68057194    -0.89900
H1454       H  0.57465968  0.11999586  0.57341159     0.17800
H1455       H  0.58215085  0.20453686  0.68984189     0.17800
N1456       N  0.58709695  0.21548776  0.58102554    -0.88900
H1457       H  0.58944632  0.09680403  0.66791839     0.35200
H1458       H  0.55438697  0.10006839  0.66501388     0.40300
H1459       H  0.60691699  0.21499133  0.56325192     0.39900
H1460       H  0.58776994  0.23087534  0.61149559     0.34800
C1461       C  0.50991502  0.17213521  0.48393489    -0.26900
C1462       C  0.52346327  0.16457150  0.43475476    -0.15000
C1463       C  0.50710307  0.15698696  0.38827150     0.35600
C1464       C  0.47777977  0.15640810  0.39287286    -0.26400
C1465       C  0.46440202  0.16377189  0.44245319    -0.15600
C1466       C  0.48084986  0.17193921  0.48818251     0.36700
N1467       N  0.46839104  0.17897108  0.54011512    -0.89900
H1468       H  0.52187523  0.17728210  0.52063385     0.17800
H1469       H  0.46527114  0.15051155  0.35733183     0.17800
N1470       N  0.52013600  0.15020246  0.33652056    -0.88900
H1471       H  0.47425038  0.19929603  0.55015963     0.35200
H1472       H  0.47655741  0.16567304  0.57055329     0.40300
H1473       H  0.53004029  0.16815010  0.32206732     0.39900
H1474       H  0.50516620  0.14484444  0.30679626     0.34800
C1475       C  0.57344076  0.23768827  0.39720238    -0.26900
C1476       C  0.59701944  0.22480926  0.42005076    -0.15000
C1477       C  0.61992344  0.24104733  0.43726936     0.35600
C1478       C  0.61753951  0.27032832  0.43587511    -0.26400
C1479       C  0.59288028  0.28311775  0.41683113    -0.15600
C1480       C  0.57141010  0.26667025  0.39427289     0.36700
N1481       N  0.54740224  0.27957140  0.36918346    -0.89900
H1482       H  0.55616404  0.22500356  0.38304310     0.17800
H1483       H  0.63416144  0.28307765  0.45256635     0.17800
N1484       N  0.64496265  0.22787902  0.45755777    -0.88900
H1485       H  0.53324109  0.26457076  0.35554044     0.35200
H1486       H  0.55444725  0.28990639  0.33373003     0.40300
H1487       H  0.64005202  0.21686174  0.49364515     0.39900
H1488       H  0.65968509  0.24282540  0.46875628     0.34800
C1489       C  0.83963648  0.92699908  0.31219291    -0.26900
C1490       C  0.81365427  0.91399073  0.31643695    -0.15000
C1491       C  0.81255270  0.88660359  0.33713726     0.35600
C1492       C  0.83731852  0.87167002  0.34672228    -0.26400
C1493       C  0.86364096  0.88303833  0.33387373    -0.15600
C1494       C  0.86448899  0.91202264  0.32004138     0.36700
N1495       N  0.88999166  0.92663985  0.30975317    -0.89900
H1496       H  0.84081177  0.94843613  0.29825176     0.17800
H1497       H  0.83503249  0.85035629  0.35963488     0.17800
N1498       N  0.78625313  0.87327051  0.34612056    -0.88900
H1499       H  0.90117020  0.91701466  0.27810630     0.35200
H1500       H  0.90187634  0.92703897  0.34605996     0.40300
H1501       H  0.78545600  0.86684421  0.38748422     0.39900
H1502       H  0.78540243  0.85552504  0.32114047     0.34800
C1503       C  0.67853627  0.87416091  0.21841751    -0.26900
C1504       C  0.67685090  0.90234486  0.20387581    -0.15000
C1505       C  0.65192874  0.91253571  0.17981622     0.35600
C1506       C  0.62874998  0.89481351  0.17377257    -0.26400
C1507       C  0.62986176  0.86682513  0.19154032    -0.15600
C1508       C  0.65559538  0.85649654  0.21264196     0.36700
N1509       N  0.65821284  0.82818517  0.23096155    -0.89900
H1510       H  0.69753975  0.86581456  0.23657727     0.17800
H1511       H  0.60975946  0.90371039  0.15725744     0.17800
N1512       N  0.64987234  0.94093062  0.16194084    -0.88900
H1513       H  0.66379897  0.82819145  0.27287324     0.35200
H1514       H  0.67437947  0.81880586  0.20871075     0.40300
H1515       H  0.63337147  0.95031588  0.18313619     0.39900
H1516       H  0.64496113  0.94103838  0.11967338     0.34800
C1517       C  0.66492186  0.09723175  0.42654579    -0.26900
C1518       C  0.65194351  0.07130611  0.42149584    -0.15000
C1519       C  0.62461770  0.07009848  0.39981792     0.35600
C1520       C  0.60942941  0.09494453  0.39212082    -0.26400
C1521       C  0.62094374  0.12105129  0.40612680    -0.15600
C1522       C  0.64978242  0.12197105  0.41946200     0.36700
N1523       N  0.66317772  0.14786886  0.43163456    -0.89900
H1524       H  0.68632384  0.09847243  0.44099684     0.17800
H1525       H  0.58792171  0.09308885  0.37976313     0.17800
N1526       N  0.61192501  0.04366311  0.38810277    -0.88900
H1527       H  0.68027853  0.14994542  0.40520448     0.35200
H1528       H  0.67064978  0.14707591  0.47237966     0.40300
H1529       H  0.62338908  0.03436156  0.35630570     0.39900
H1530       H  0.59164307  0.04636483  0.37285812     0.34800
C1531       C  0.66142758  0.90838219  0.54608479    -0.26900
C1532       C  0.64925001  0.93484603  0.55084867    -0.15000
C1533       C  0.62184788  0.93708555  0.57134673     0.35600
C1534       C  0.60663412  0.91281466  0.58295090    -0.26400
C1535       C  0.61802469  0.88592323  0.57498570    -0.15600
C1536       C  0.64608848  0.88411398  0.55683589     0.36700
N1537       N  0.65862298  0.85763920  0.54542475    -0.89900
H1538       H  0.68250475  0.90633807  0.53047425     0.17800
H1539       H  0.58517006  0.91559538  0.59453934     0.17800
N1540       N  0.60910815  0.96399898  0.57857630    -0.88900
H1541       H  0.67670361  0.85578122  0.56959645     0.35200
H1542       H  0.66445707  0.85730106  0.50374605     0.40300
H1543       H  0.62013335  0.97425094  0.60988818     0.39900
H1544       H  0.58857239  0.96209762  0.59248926     0.34800
C1545       C  0.80439421  0.12263676  0.70103041    -0.26900
C1546       C  0.80404847  0.09440100  0.68677542    -0.15000
C1547       C  0.82758711  0.08315814  0.65912940     0.35600
C1548       C  0.85158995  0.09950884  0.65172554    -0.26400
C1549       C  0.85305498  0.12700232  0.67198105    -0.15600
C1550       C  0.82839343  0.13882107  0.69442951     0.36700
N1551       N  0.82826982  0.16676220  0.71511722    -0.89900
H1552       H  0.78646752  0.13196539  0.72105730     0.17800
H1553       H  0.86956387  0.08961095  0.63347577     0.17800
N1554       N  0.82808595  0.05514996  0.63888520    -0.88900
H1555       H  0.82347742  0.16614054  0.75732015     0.35200
H1556       H  0.81243791  0.17781850  0.69465791     0.40300
H1557       H  0.81096514  0.05232251  0.61270975     0.39900
H1558       H  0.82670756  0.04137640  0.67246489     0.34800
C1559       C  0.67587421  0.11445370  0.84183020    -0.26900
C1560       C  0.67151758  0.08733991  0.82329489    -0.15000
C1561       C  0.64466047  0.07587003  0.82817987     0.35600
C1562       C  0.62219766  0.09291217  0.84428450    -0.26400
C1563       C  0.62558031  0.12176342  0.85406009    -0.15600
C1564       C  0.65367836  0.13181122  0.85603970     0.36700
N1565       N  0.66102632  0.15985509  0.86876078    -0.89900
H1566       H  0.69669523  0.12320750  0.84112996     0.17800
H1567       H  0.60152862  0.08401394  0.84192042     0.17800
N1568       N  0.63960329  0.04748434  0.81333336    -0.88900
H1569       H  0.65421763  0.16473897  0.90866048     0.35200
H1570       H  0.65303899  0.17314330  0.83845033     0.40300
H1571       H  0.62489562  0.04726469  0.78120033     0.39900
H1572       H  0.63089089  0.03742568  0.84757604     0.34800
C1573       C  0.81647645  0.09341641  0.05453798    -0.26900
C1574       C  0.82854931  0.06683965  0.05778329    -0.15000
C1575       C  0.85589240  0.06418870  0.07935730     0.35600
C1576       C  0.87162422  0.08822159  0.09081270    -0.26400
C1577       C  0.86080088  0.11511522  0.08096973    -0.15600
C1578       C  0.83217897  0.11739653  0.06584825     0.36700
N1579       N  0.81941794  0.14415780  0.05797914    -0.89900
H1580       H  0.79520135  0.09581541  0.03980689     0.17800
H1581       H  0.89293797  0.08534168  0.10387403     0.17800
N1582       N  0.86806171  0.03707900  0.08770111    -0.88900
H1583       H  0.81226836  0.14554972  0.01706791     0.35200
H1584       H  0.80215824  0.14547667  0.08419995     0.40300
H1585       H  0.85657087  0.02709408  0.11860771     0.39900
H1586       H  0.88849405  0.03866726  0.10269230     0.34800
C1587       C  0.86199702  0.93633474  0.93392221    -0.26900
C1588       C  0.83319401  0.93458213  0.92605440    -0.15000
C1589       C  0.82205166  0.91036857  0.90185444     0.35600
C1590       C  0.83956189  0.88733123  0.89168133    -0.26400
C1591       C  0.86819112  0.88780526  0.90594734    -0.15600
C1592       C  0.87946558  0.91364512  0.92500968     0.36700
N1593       N  0.90810785  0.91735312  0.94075022    -0.89900
H1594       H  0.87108733  0.95504925  0.95121745     0.17800
H1595       H  0.82985745  0.86842062  0.87729265     0.17800
N1596       N  0.79285460  0.90859064  0.88953183    -0.88900
H1597       H  0.92076514  0.91622776  0.90581079     0.35200
H1598       H  0.91412789  0.90284398  0.97081191     0.40300
H1599       H  0.78465069  0.89179526  0.91170331     0.39900
H1600       H  0.79065063  0.90431800  0.84728973     0.34800
C1601       C  0.32345419  0.09320058  0.43386657    -0.26900
C1602       C  0.33641505  0.06719125  0.44060451    -0.15000
C1603       C  0.36560727  0.06542980  0.43484694     0.35600
C1604       C  0.38132815  0.08972191  0.42711721    -0.26400
C1605       C  0.36873957  0.11636029  0.42487079    -0.15600
C1606       C  0.33915364  0.11764119  0.42750300     0.36700
N1607       N  0.32484640  0.14385798  0.42820853    -0.89900
H1608       H  0.30099793  0.09498802  0.43772028     0.17800
H1609       H  0.40372956  0.08739781  0.42790144     0.17800
N1610       N  0.37971209  0.03916741  0.43958995    -0.88900
H1611       H  0.31373823  0.14532854  0.46528673     0.35200
H1612       H  0.31051741  0.14416210  0.39542139     0.40300
H1613       H  0.39382473  0.04033115  0.47267353     0.39900
H1614       H  0.39109288  0.03593298  0.40330792     0.34800
C1615       C  0.36858412  0.90704836  0.60077078    -0.26900
C1616       C  0.36090232  0.88146092  0.57637390    -0.15000
C1617       C  0.33376755  0.87991094  0.55134780     0.35600
C1618       C  0.31787962  0.90422585  0.54456330    -0.26400
C1619       C  0.32815303  0.93019588  0.56054605    -0.15600
C1620       C  0.35287513  0.93145049  0.59201559     0.36700
N1621       N  0.36239620  0.95764628  0.61361202    -0.89900
H1622       H  0.38743524  0.90889491  0.62476843     0.17800
H1623       H  0.29818864  0.90296873  0.52243133     0.17800
N1624       N  0.32203525  0.85478662  0.52876867    -0.88900
H1625       H  0.38121765  0.95517546  0.63512281     0.35200
H1626       H  0.34766290  0.96446234  0.64246139     0.40300
H1627       H  0.33443315  0.83727208  0.53503646     0.39900
H1628       H  0.32015979  0.85740771  0.48592206     0.34800
C1629       C  0.30541362  0.11609436  0.81391054    -0.26900
C1630       C  0.30798418  0.08710178  0.81229712    -0.15000
C1631       C  0.33375273  0.07477725  0.82769752     0.35600
C1632       C  0.35675773  0.09198045  0.84075437    -0.26400
C1633       C  0.35469138  0.12128444  0.83811459    -0.15600
C1634       C  0.32821749  0.13311869  0.82527995     0.36700
N1635       N  0.32485531  0.16259084  0.81817163    -0.89900
H1636       H  0.28585341  0.12601256  0.80251481     0.17800
H1637       H  0.37667691  0.08219652  0.84885446     0.17800
N1638       N  0.33696915  0.04501084  0.82746241    -0.88900
H1639       H  0.30909516  0.16938288  0.84477573     0.35200
H1640       H  0.31840478  0.16646302  0.77740373     0.40300
H1641       H  0.32423974  0.03700930  0.85875929     0.39900
H1642       H  0.35741425  0.03936259  0.83782403     0.34800
C1643       C  0.12530604  0.09670919  0.65446048    -0.26900
C1644       C  0.12643751  0.12588293  0.66134843    -0.15000
C1645       C  0.15266516  0.13752513  0.67782691     0.35600
C1646       C  0.17542612  0.12020850  0.68933541    -0.26400
C1647       C  0.17343743  0.09121985  0.68633146    -0.15600
C1648       C  0.14827389  0.07944128  0.66730758     0.36700
N1649       N  0.14537754  0.04984794  0.66332643    -0.89900
H1650       H  0.10606697  0.08656691  0.64326862     0.17800
H1651       H  0.19467125  0.12973156  0.70334536     0.17800
N1652       N  0.15695663  0.16672427  0.68665245    -0.88900
H1653       H  0.13984835  0.04501995  0.62253836     0.35200
H1654       H  0.12900918  0.04375390  0.68912911     0.40300
H1655       H  0.14244431  0.17465597  0.71463540     0.39900
H1656       H  0.15595426  0.17728759  0.64892288     0.34800
C1657       C  0.33938622  0.92101601  0.19167847    -0.26900
C1658       C  0.31268565  0.90958325  0.18648926    -0.15000
C1659       C  0.31019508  0.88215252  0.16677534     0.35600
C1660       C  0.33418040  0.86597807  0.15727126    -0.26400
C1661       C  0.36129717  0.87620668  0.16789906    -0.15600
C1662       C  0.36347946  0.90489801  0.18331555     0.36700
N1663       N  0.38964372  0.91822334  0.19407617    -0.89900
H1664       H  0.34170128  0.94228710  0.20582225     0.17800
H1665       H  0.33074270  0.84462570  0.14579874     0.17800
N1666       N  0.28321995  0.87011835  0.15810788    -0.88900
H1667       H  0.40096232  0.91944684  0.15738078     0.35200
H1668       H  0.40083764  0.90720439  0.22425923     0.40300
H1669       H  0.28160958  0.85249604  0.18342038     0.39900
H1670       H  0.28189579  0.86367356  0.11684622     0.34800
C1671       C  0.18188415  0.87753195  0.30809008    -0.26900
C1672       C  0.17938094  0.90647671  0.31235356    -0.15000
C1673       C  0.15392036  0.91795008  0.33101470     0.35600
C1674       C  0.13081176  0.90032540  0.33956457    -0.26400
C1675       C  0.13260718  0.87132699  0.33044683    -0.15600
C1676       C  0.15895944  0.86008076  0.31575003     0.36700
N1677       N  0.16218630  0.83102090  0.30407547    -0.89900
H1678       H  0.20136473  0.86827561  0.29466089     0.17800
H1679       H  0.11112001  0.90989133  0.34977306     0.17800
N1680       N  0.15120731  0.94748148  0.33912508    -0.88900
H1681       H  0.17778723  0.82302597  0.33010296     0.35200
H1682       H  0.16883041  0.82888918  0.26309097     0.40300
H1683       H  0.16442121  0.95291925  0.37192244     0.39900
H1684       H  0.13096671  0.95263477  0.35153144     0.34800
C1685       C  0.15971700  0.09304220  0.04957155    -0.26900
C1686       C  0.14698119  0.06698313  0.05379116    -0.15000
C1687       C  0.11907094  0.06563347  0.07148660     0.35600
C1688       C  0.10382723  0.09027073  0.07994633    -0.26400
C1689       C  0.11562715  0.11676309  0.07028802    -0.15600
C1690       C  0.14466884  0.11768830  0.05711327     0.36700
N1691       N  0.15952388  0.14311067  0.04781497    -0.89900
H1692       H  0.18136721  0.09447352  0.03710282     0.17800
H1693       H  0.08205380  0.08790861  0.08965536     0.17800
N1694       N  0.10564511  0.03929452  0.07894638    -0.88900
H1695       H  0.16089608  0.15417288  0.08484335     0.35200
H1696       H  0.14964145  0.15495311  0.01711657     0.40300
H1697       H  0.08830499  0.03857898  0.05254349     0.39900
H1698       H  0.09849618  0.03819562  0.11976028     0.34800
C1699       C  0.13916129  0.88442162  0.90501942    -0.26900
C1700       C  0.11143608  0.88390625  0.92422130    -0.15000
C1701       C  0.09961812  0.90907341  0.94428383     0.35600
C1702       C  0.11592007  0.93289135  0.94913862    -0.26400
C1703       C  0.14434607  0.93236859  0.93667491    -0.15600
C1704       C  0.15582679  0.90841465  0.91147180     0.36700
N1705       N  0.18453356  0.90814264  0.89450157    -0.89900
H1706       H  0.14865922  0.86583508  0.88848988     0.17800
H1707       H  0.10659614  0.95128167  0.96740159     0.17800
N1708       N  0.07161595  0.90993415  0.96494414    -0.88900
H1709       H  0.18662272  0.92281134  0.86267084     0.35200
H1710       H  0.18986183  0.88884165  0.87762166     0.40300
H1711       H  0.06061023  0.92527976  0.94305849     0.39900
H1712       H  0.07235372  0.91580877  0.00661614     0.34800
loop_ 
_geom_bond_atom_site_label_1 
_geom_bond_atom_site_label_2 
_geom_bond_distance 
_geom_bond_site_symmetry_2 
_ccdc_geom_bond_type 
In1           O3   2.236   1_565  S
In1           O4   2.298       .  S
In1          O12   2.238   1_566  S
In1           O6   2.243   1_566  S
In1           O8   2.221       .  S
In1           O9   2.305   1_566  S
In1          O10   2.253       .  S
In1          O13   2.247   1_556  S
C2            O8   1.263       .  A
C2           O10   1.263       .  A
C2         C1703   1.481       .  S
O3           C11   1.257       .  A
O4           C11   1.265   1_565  A
C5           O12   1.264       .  A
C5            O6   1.262       .  A
C5         C1686   1.483       .  S
C7            O9   1.264   1_565  A
C7           O13   1.257       .  A
C7           C20   1.483       .  S
C11          C37   1.478       .  S
In14         O16   2.233       .  S
In14         O17   2.304       .  S
In14         O25   2.262       .  S
In14         O19   2.236       .  S
In14         O21   2.227       .  S
In14         O22   2.307       .  S
In14         O23   2.256       .  S
In14         O26   2.242       .  S
C15          O21   1.263       .  A
C15          O23   1.263       .  A
C15        C1672   1.486       .  S
O16          C24   1.257       .  A
O17          C24   1.265       .  A
C18          O25   1.265       .  A
C18          O19   1.262       .  A
C18        C1658   1.489       .  S
C20          O22   1.266       .  A
C20          O26   1.256       .  A
C24          C50   1.479       .  S
In27         O29   2.233       .  S
In27         O30   2.302       .  S
In27         O38   2.254       .  S
In27         O32   2.233       .  S
In27         O34   2.217       .  S
In27         O35   2.299       .  S
In27         O36   2.263       .  S
In27         O39   2.232       .  S
C28          O34   1.264       .  A
C28          O36   1.264       .  A
C28        C1630   1.488       .  S
O29          C37   1.256       .  A
O30          C37   1.266       .  A
C31          O38   1.264       .  A
C31          O32   1.264       .  A
C31        C1647   1.488       .  S
C33          O35   1.266       .  A
C33          O39   1.256       .  A
C33          C46   1.478       .  S
In40         O42   2.227   1_545  S
In40         O43   2.300       .  S
In40         O51   2.239   1_545  S
In40         O45   2.234   1_545  S
In40         O47   2.236       .  S
In40         O48   2.300   1_545  S
In40         O49   2.247       .  S
In40         O52   2.234       .  S
C41          O47   1.264       .  A
C41          O49   1.265       .  A
C41        C1602   1.488       .  S
O42          C50   1.257       .  A
O43          C50   1.268   1_545  A
C44          O51   1.263       .  A
C44          O45   1.263       .  A
C44        C1619   1.479       .  S
C46          O48   1.265   1_545  A
C46          O52   1.257       .  A
In53         O55   2.251   1_556  S
In53         O56   2.300   1_556  S
In53         O64   2.260   1_566  S
In53         O58   2.235   1_566  S
In53         O60   2.214       .  S
In53         O61   2.300       .  S
In53         O62   2.256       .  S
In53         O65   2.227   1_565  S
C54          O60   1.264       .  A
C54          O62   1.264       .  A
C54        C1588   1.482       .  S
O55          C63   1.257       .  A
O56          C63   1.265       .  A
C57          O64   1.265       .  A
C57          O58   1.262       .  A
C57        C1574   1.489       .  S
C59          O61   1.268   1_545  A
C59          O65   1.257       .  A
C59          C76   1.478       .  S
C63         C102   1.485       .  S
In66         O68   2.233       .  S
In66         O69   2.302       .  S
In66         O77   2.250       .  S
In66         O71   2.230       .  S
In66         O73   2.240       .  S
In66         O74   2.288       .  S
In66         O75   2.248       .  S
In66         O78   2.245       .  S
C67          O73   1.266       .  A
C67          O75   1.263       .  A
C67        C1546   1.491       .  S
O68          C76   1.256       .  A
O69          C76   1.264       .  A
C70          O77   1.262       .  A
C70          O71   1.265       .  A
C70        C1560   1.484       .  S
C72          O74   1.266       .  A
C72          O78   1.259       .  A
C72          C85   1.480       .  S
In79         O81   2.224   1_545  S
In79         O82   2.299       .  S
In79         O90   2.232       .  S
In79         O84   2.241       .  S
In79         O86   2.233   1_545  S
In79         O87   2.292       .  S
In79         O88   2.242   1_545  S
In79         O91   2.246       .  S
C80          O86   1.264       .  A
C80          O88   1.264       .  A
C80        C1532   1.484       .  S
O81          C89   1.257       .  A
O82          C89   1.267   1_545  A
C83          O90   1.263       .  A
C83          O84   1.264       .  A
C83        C1518   1.481       .  S
C85          O87   1.266       .  A
C85          O91   1.258       .  A
C89          C98   1.476       .  S
In92         O94   2.253       .  S
In92         O95   2.300       .  S
In92        O103   2.250       .  S
In92         O97   2.227       .  S
In92         O99   2.231       .  S
In92        O100   2.306       .  S
In92        O101   2.257       .  S
In92        O104   2.228       .  S
C93          O99   1.261       .  A
C93         O101   1.264       .  A
C93        C1490   1.483       .  S
O94         C102   1.258       .  A
O95         C102   1.266       .  A
C96         O103   1.264       .  A
C96          O97   1.264       .  A
C96        C1504   1.484       .  S
C98         O100   1.265       .  A
C98         O104   1.254       .  A
C105        C106   1.554       .  S
C105        C111   1.531       .  S
C105        C109   1.542       .  S
C105       C1521   1.533       .  S
C106        H113   1.079       .  S
C106        C107   1.371       .  D
C107        C108   1.537       .  S
C107       C1462   1.494       .  S
C108        C112   1.528       .  S
C108        C110   1.535       .  S
C108        H114   1.110       .  S
C109        H115   1.085       .  S
C109        C110   1.365       .  D
C110       C1476   1.472       .  S
C111        H116   1.088       .  S
C111        C112   1.357       .  D
C112       C1448   1.480       .  S
C117        C118   1.541       .  S
C117        C123   1.530       .  S
C117        C121   1.553       .  S
C117       C1605   1.537       .  S
C118        H125   1.085       .  S
C118        C119   1.366       .  D
C119        C120   1.538       .  S
C119       C1437   1.472       .  S
C120        C124   1.529       .  S
C120        C122   1.535       .  S
C120        H126   1.110       .  S
C121        H127   1.083       .  S
C121        C122   1.371       .  D
C122       C1465   1.491       .  S
C123        H128   1.088       .  S
C123        C124   1.358       .  D
C124       C1420   1.476       .  S
C129        C130   1.553       .  S
C129        C135   1.538       .  S
C129        C133   1.547       .  S
C129       C1378   1.541       .  S
C130        H137   1.083       .  S
C130        C131   1.371       .  D
C131        C132   1.537       .  S
C131       C1479   1.479       .  S
C132        C136   1.525       .  S
C132        C134   1.531       .  S
C132        H138   1.111       .  S
C133        H139   1.081       .  S
C133        C134   1.364       .  D
C134       C1406   1.477       .  S
C135        H140   1.087       .  S
C135        C136   1.357       .  D
C136       C1392   1.479       .  S
C141        C142   1.551       .  S
C141        C147   1.539       .  S
C141        C145   1.544       .  S
C141       C1350   1.540       .  S
C142        H149   1.080       .  S
C142        C143   1.358       .  D
C143        C144   1.530       .  S
C143       C1409   1.473       .  S
C144        C148   1.529       .  S
C144        C146   1.537       .  S
C144        H150   1.111       .  S
C145        H151   1.084       .  S
C145        C146   1.370       .  D
C146       C1434   1.474       .  S
C147        H152   1.087       .  S
C147        C148   1.361       .  D
C148       C1364   1.482       .  S
C153        C154   1.541       .  S
C153        C159   1.531       .  S
C153        C157   1.546       .  S
C153       C1311   1.536       .  S
C154        H161   1.084       .  S
C154        C155   1.367       .  D
C155        C156   1.538       .  S
C155       C1322   1.485       .  S
C156        C160   1.535       .  S
C156        C158   1.545       .  S
C156        H162   1.106       .  S
C157        H163   1.084       .  S
C157        C158   1.370       .  D
C158       C1336   1.485       .  S
C159        H164   1.087       .  S
C159        C160   1.363       .  D
C160       C1367   1.493       .  S
C165        C166   1.548       .  S
C165        C171   1.531       .  S
C165        C169   1.548       .  S
C165       C1280   1.540       .  S
C166        H173   1.085       .  S
C166        C167   1.370       .  D
C167        C168   1.540       .  S
C167       C1339   1.481       .  S
C168        C172   1.527       .  S
C168        C170   1.539       .  S
C168        H174   1.109       .  S
C169        H175   1.083       .  S
C169        C170   1.371       .  D
C170       C1294   1.492       .  S
C171        H176   1.088       .  S
C171        C172   1.356       .  D
C172       C1395   1.473       .  S
C177        C178   1.553       .  S
C177        C183   1.531       .  S
C177        C181   1.542       .  S
C177       C1633   1.533       .  S
C178        H185   1.083       .  S
C178        C179   1.374       .  D
C179        C180   1.538       .  S
C179       C1266   1.478       .  S
C180        C184   1.525       .  S
C180        C182   1.534       .  S
C180        H186   1.111       .  S
C181        H187   1.086       .  S
C181        C182   1.368       .  D
C182       C1325   1.478       .  S
C183        H188   1.088       .  S
C183        C184   1.350       .  D
C184       C1423   1.469       .  S
C189        C190   1.543       .  S
C189        C195   1.537       .  S
C189        C193   1.551       .  S
C189       C1563   1.541       .  S
C190        H197   1.078       .  S
C190        C191   1.365       .  D
C191        C192   1.535       .  S
C191       C1297   1.483       .  S
C192        C196   1.523       .  S
C192        C194   1.541       .  S
C192        H198   1.111       .  S
C193        H199   1.085       .  S
C193        C194   1.372       .  D
C194       C1269   1.484       .  S
C195        H200   1.088       .  S
C195        C196   1.354       .  D
C196       C1451   1.470       .  S
C201        C202   1.543       .  S
C201        C207   1.536       .  S
C201        C205   1.554       .  S
C201       C1616   1.542       .  S
C202        H209   1.086       .  S
C202        C203   1.367       .  D
C203        C204   1.534       .  S
C203       C1252   1.475       .  S
C204        C208   1.524       .  S
C204        C206   1.532       .  S
C204        H210   1.111       .  S
C205        H211   1.080       .  S
C205        C206   1.368       .  D
C206       C1238   1.481       .  S
C207        H212   1.087       .  S
C207        C208   1.357       .  D
C208       C1224   1.471       .  S
C213        C214   1.556       .  S
C213        C219   1.531       .  S
C213        C217   1.544       .  S
C213       C1182   1.543       .  S
C214        H221   1.081       .  S
C214        C215   1.374       .  D
C215        C216   1.536       .  S
C215       C1213   1.491       .  S
C216        C220   1.524       .  S
C216        C218   1.537       .  S
C216        H222   1.111       .  S
C217        H223   1.083       .  S
C217        C218   1.368       .  D
C218       C1255   1.479       .  S
C219        H224   1.088       .  S
C219        C220   1.353       .  D
C220       C1196   1.466       .  S
C225        C226   1.549       .  S
C225        C231   1.534       .  S
C225        C229   1.549       .  S
C225       C1535   1.539       .  S
C226        H233   1.082       .  S
C226        C227   1.366       .  D
C227        C228   1.534       .  S
C227       C1241   1.483       .  S
C228        C232   1.523       .  S
C228        C230   1.535       .  S
C228        H234   1.111       .  S
C229        H235   1.085       .  S
C229        C230   1.371       .  D
C230       C1168   1.477       .  S
C231        H236   1.088       .  S
C231        C232   1.357       .  D
C232       C1154   1.469       .  S
C237        C238   1.541       .  S
C237        C243   1.531       .  S
C237        C241   1.553       .  S
C237       C1126   1.542       .  S
C238        H245   1.083       .  S
C238        C239   1.365       .  D
C239        C240   1.540       .  S
C239       C1171   1.477       .  S
C240        C244   1.531       .  S
C240        C242   1.543       .  S
C240        H246   1.110       .  S
C241        H247   1.081       .  S
C241        C242   1.371       .  D
C242       C1210   1.493       .  S
C243        H248   1.088       .  S
C243        C244   1.356       .  D
C244       C1140   1.475       .  S
C249        C250   1.556       .  S
C249        C255   1.533       .  S
C249        C253   1.542       .  S
C249       C1084   1.537       .  S
C250        H257   1.082       .  S
C250        C251   1.370       .  D
C251        C252   1.534       .  S
C251       C1098   1.489       .  S
C252        C256   1.527       .  S
C252        C254   1.533       .  S
C252        H258   1.110       .  S
C253        H259   1.085       .  S
C253        C254   1.367       .  D
C254       C1112   1.470       .  S
C255        H260   1.088       .  S
C255        C256   1.358       .  D
C256       C1199   1.474       .  S
C261        C262   1.542       .  S
C261        C267   1.533       .  S
C261        C265   1.550       .  S
C261       C1059   1.533       .  S
C262        H269   1.085       .  S
C262        C263   1.367       .  D
C263        C264   1.535       .  S
C263       C1115   1.471       .  S
C264        C268   1.526       .  S
C264        C266   1.533       .  S
C264        H270   1.111       .  S
C265        H271   1.082       .  S
C265        C266   1.368       .  D
C266       C1070   1.479       .  S
C267        H272   1.088       .  S
C267        C268   1.357       .  D
C268       C1143   1.475       .  S
C273        C274   1.545       .  S
C273        C279   1.534       .  S
C273        C277   1.562       .  S
C273       C1661   1.547       .  S
C274        H281   1.082       .  S
C274        C275   1.367       .  D
C275        C276   1.531       .  S
C275       C1042   1.473       .  S
C276        C280   1.523       .  S
C276        C278   1.532       .  S
C276        H282   1.112       .  S
C277        H283   1.081       .  S
C277        C278   1.372       .  D
C278       C1101   1.486       .  S
C279        H284   1.088       .  S
C279        C280   1.356       .  D
C280       C1227   1.472       .  S
C285        C286   1.541       .  S
C285        C291   1.533       .  S
C285        C289   1.551       .  S
C285       C1507   1.534       .  S
C286        H293   1.085       .  S
C286        C287   1.369       .  D
C287        C288   1.537       .  S
C287       C1073   1.484       .  S
C288        C292   1.525       .  S
C288        C290   1.535       .  S
C288        H294   1.111       .  S
C289        H295   1.082       .  S
C289        C290   1.371       .  D
C290       C1045   1.478       .  S
C291        H296   1.088       .  S
C291        C292   1.355       .  D
C292       C1157   1.468       .  S
In297       O299   2.231       .  S
In297       O300   2.300       .  S
In297       O308   2.251       .  S
In297       O302   2.215       .  S
In297       O304   2.227       .  S
In297       O305   2.302       .  S
In297       O306   2.242       .  S
In297       O309   2.236       .  S
C298        O304   1.264       .  A
C298        O306   1.264       .  A
C298       C1308   1.483       .  S
O299        C307   1.256       .  A
O300        C307   1.265       .  A
C301        O308   1.264       .  A
C301        O302   1.263       .  A
C301       C1031   1.483       .  S
C303        O305   1.265       .  A
C303        O309   1.256       .  A
C303        C329   1.480       .  S
C307        C316   1.476       .  S
In310       O312   2.239       .  S
In310       O313   2.295       .  S
In310       O321   2.236       .  S
In310       O315   2.221       .  S
In310       O317   2.236       .  S
In310       O318   2.295       .  S
In310       O319   2.244       .  S
In310       O322   2.222       .  S
C311        O317   1.263       .  A
C311        O319   1.265       .  A
C311       C1185   1.486       .  S
O312        C320   1.257       .  A
O313        C320   1.265       .  A
C314        O321   1.263       .  A
C314        O315   1.263       .  A
C314       C1353   1.478       .  S
C316        O318   1.267       .  A
C316        O322   1.256       .  A
C320        C346   1.478       .  S
In323       O325   2.244       .  S
In323       O326   2.303       .  S
In323       O334   2.248       .  S
In323       O328   2.224       .  S
In323       O330   2.240   1_554  S
In323       O331   2.302   1_554  S
In323       O332   2.250   1_554  S
In323       O335   2.238   1_554  S
C324        O330   1.263       .  A
C324        O332   1.264       .  A
C324       C1000   1.486       .  S
O325        C333   1.258       .  A
O326        C333   1.266       .  A
C327        O334   1.264       .  A
C327        O328   1.264       .  A
C327       C1014   1.482       .  S
C329        O331   1.265       .  A
C329        O335   1.257       .  A
C333        C342   1.483       .  S
In336       O338   2.235       .  S
In336       O339   2.296       .  S
In336       O347   2.248       .  S
In336       O341   2.244       .  S
In336       O343   2.241       .  S
In336       O344   2.301       .  S
In336       O345   2.246       .  S
In336       O348   2.242       .  S
C337        O343   1.263       .  A
C337        O345   1.264       .  A
C337       C1087   1.489       .  S
O338        C346   1.257       .  A
O339        C346   1.266       .  A
C340        O347   1.264       .  A
C340        O341   1.263       .  A
C340        C989   1.489       .  S
C342        O344   1.266       .  A
C342        O348   1.258       .  A
C349        C350   1.543       .  S
C349        C355   1.534       .  S
C349        C353   1.562       .  S
C349        C930   1.543       .  S
C350        H357   1.082       .  S
C350        C351   1.365       .  D
C351        C352   1.535       .  S
C351        C972   1.475       .  S
C352        C356   1.524       .  S
C352        C354   1.536       .  S
C352        H358   1.112       .  S
C353        H359   1.081       .  S
C353        C354   1.373       .  D
C354        C958   1.491       .  S
C355        H360   1.088   1_556  S
C355        C356   1.354       .  D
C356        C944   1.470   1_556  S
C361        C362   1.549       .  S
C361        C367   1.530       .  S
C361        C365   1.550       .  S
C361       C1591   1.533       .  S
C362        H369   1.081       .  S
C362        C363   1.371       .  D
C363        C364   1.537       .  S
C363        C916   1.498       .  S
C364        C368   1.524   1_556  S
C364        C366   1.536       .  S
C364        H370   1.108       .  S
C365        H371   1.084       .  S
C365        C366   1.370       .  D
C366        C975   1.475       .  S
C367        H372   1.088   1_556  S
C367        C368   1.347   1_556  D
C368        C902   1.462       .  S
C373        C374   1.553       .  S
C373        C379   1.535       .  S
C373        C377   1.544       .  S
C373       C1700   1.529       .  S
C374        H381   1.083       .  S
C374        C375   1.372       .  D
C375        C376   1.530       .  S
C375        C888   1.474       .  S
C376        C380   1.524   1_556  S
C376        C378   1.538       .  S
C376        H382   1.111       .  S
C377        H383   1.085       .  S
C377        C378   1.367       .  D
C378        C919   1.487       .  S
C379        H384   1.088   1_556  S
C379        C380   1.351   1_556  D
C380        C874   1.471       .  S
C385        C386   1.559       .  S
C385        C391   1.529       .  S
C385        C389   1.535       .  S
C385       C1003   1.535       .  S
C386        H393   1.083       .  S
C386        C387   1.376       .  D
C387        C388   1.540       .  S
C387        C961   1.499       .  S
C388        C392   1.538   1_556  S
C388        C390   1.541       .  S
C388        H394   1.108       .  S
C389        H395   1.086       .  S
C389        C390   1.362       .  D
C390        C891   1.473       .  S
C391        H396   1.087   1_556  S
C391        C392   1.355   1_556  D
C392        C860   1.487       .  S
C397        C398   1.548       .  S
C397        C403   1.534       .  S
C397        C401   1.547       .  S
C397       C1675   1.535       .  S
C398        H405   1.083       .  S
C398        C399   1.367       .  D
C399        C400   1.538       .  S
C399        C849   1.477       .  S
C400        C404   1.526       .  S
C400        C402   1.538       .  S
C400        H406   1.110       .  S
C401        H407   1.085       .  S
C401        C402   1.372       .  D
C402        C835   1.493       .  S
C403        H408   1.087       .  S
C403        C404   1.354       .  D
C404        C877   1.472       .  S
C409        C410   1.561       .  S
C409        C415   1.531       .  S
C409        C413   1.541       .  S
C409       C1493   1.541       .  S
C410        H417   1.080       .  S
C410        C411   1.376       .  D
C411        C412   1.539       .  S
C411        C818   1.504       .  S
C412        C416   1.527       .  S
C412        C414   1.535       .  S
C412        H418   1.108       .  S
C413        H419   1.083       .  S
C413        C414   1.365       .  D
C414        C846   1.475       .  S
C415        H420   1.088       .  S
C415        C416   1.351       .  D
C416        C905   1.463       .  S
C421        C422   1.546       .  S
C421        C427   1.529       .  S
C421        C425   1.547       .  S
C421        C986   1.538       .  S
C422        H429   1.083       .  S
C422        C423   1.371       .  D
C423        C424   1.542       .  S
C423        C832   1.489       .  S
C424        C428   1.532       .  S
C424        C426   1.541       .  S
C424        H430   1.109       .  S
C425        H431   1.085       .  S
C425        C426   1.369       .  D
C426        C804   1.483       .  S
C427        H432   1.088       .  S
C427        C428   1.356       .  D
C428        C863   1.479       .  S
C433        C434   1.553       .  S
C433        C439   1.531       .  S
C433        C437   1.550       .  S
C433        C790   1.538       .  S
C434        H441   1.082       .  S
C434        C435   1.368       .  D
C435        C436   1.534       .  S
C435        C807   1.481       .  S
C436        C440   1.525       .  S
C436        C438   1.540       .  S
C436        H442   1.110       .  S
C437        H443   1.085       .  S
C437        C438   1.375       .  D
C438        C821   1.496       .  S
C439        H444   1.088       .  S
C439        C440   1.351       .  D
C440        C947   1.466       .  S
C445        C446   1.562       .  S
C445        C451   1.532       .  S
C445        C449   1.542       .  S
C445       C1577   1.539       .  S
C446        H453   1.078       .  S
C446        C447   1.377       .  D
C447        C448   1.535       .  S
C447        C765   1.497       .  S
C448        C452   1.529   1_554  S
C448        C450   1.535       .  S
C448        H454   1.111       .  S
C449        H455   1.085       .  S
C449        C450   1.365       .  D
C450        C779   1.478       .  S
C451        H456   1.088   1_554  S
C451        C452   1.352   1_554  D
C452        C751   1.470       .  S
C457        C458   1.538       .  S
C457        C463   1.534   1_554  S
C457        C461   1.556       .  S
C457       C1689   1.538       .  S
C458        H465   1.082       .  S
C458        C459   1.361       .  D
C459        C460   1.538       .  S
C459        C734   1.473       .  S
C460        C464   1.528   1_554  S
C460        C462   1.539       .  S
C460        H466   1.109       .  S
C461        H467   1.081       .  S
C461        C462   1.373       .  D
C462        C762   1.495       .  S
C463        H468   1.088       .  S
C463        C464   1.357       .  D
C464        C723   1.479       .  S
C469        C470   1.548       .  S
C469        C475   1.529       .  S
C469        C473   1.559       .  S
C469        C678   1.538       .  S
C470        H477   1.085       .  S
C470        C471   1.371       .  D
C471        C472   1.534       .  S
C471        C776   1.479       .  S
C472        C476   1.527       .  S
C472        C474   1.531       .  S
C472        H478   1.108       .  S
C473        H479   1.082       .  S
C473        C474   1.373       .  D
C474        C709   1.493       .  S
C475        H480   1.088   1_554  S
C475        C476   1.350       .  D
C476        C692   1.470   1_554  S
C481        C482   1.543       .  S
C481        C487   1.535       .  S
C481        C485   1.556       .  S
C481       C1017   1.534       .  S
C482        H489   1.079       .  S
C482        C483   1.367       .  D
C483        C484   1.538       .  S
C483        C706   1.489       .  S
C484        C488   1.522   1_554  S
C484        C486   1.530       .  S
C484        H490   1.110       .  S
C485        H491   1.083       .  S
C485        C486   1.370       .  D
C486        C737   1.473       .  S
C487        H492   1.088   1_554  S
C487        C488   1.352   1_554  D
C488        C664   1.468       .  S
C493        C494   1.551       .  S
C493        C499   1.531       .  S
C493        C497   1.541       .  S
C493       C1644   1.540       .  S
C494        H501   1.083       .  S
C494        C495   1.371       .  D
C495        C496   1.541       .  S
C495        C636   1.478       .  S
C496        C500   1.525       .  S
C496        C498   1.539       .  S
C496        H502   1.108       .  S
C497        H503   1.082       .  S
C497        C498   1.372       .  D
C498        C653   1.491       .  S
C499        H504   1.088       .  S
C499        C500   1.352       .  D
C500        C720   1.470       .  S
C505        C506   1.552       .  S
C505        C511   1.532       .  S
C505        C509   1.549       .  S
C505       C1549   1.538       .  S
C506        H513   1.085       .  S
C506        C507   1.377       .  D
C507        C508   1.541       .  S
C507        C622   1.504       .  S
C508        C512   1.529       .  S
C508        C510   1.534       .  S
C508        H514   1.107       .  S
C509        H515   1.083       .  S
C509        C510   1.366       .  D
C510        C639   1.476       .  S
C511        H516   1.088       .  S
C511        C512   1.352       .  D
C512        C748   1.472       .  S
C517        C518   1.546       .  S
C517        C523   1.529       .  S
C517        C521   1.555       .  S
C517        C594   1.534       .  S
C518        H525   1.085       .  S
C518        C519   1.363       .  D
C519        C520   1.532       .  S
C519        C608   1.477       .  S
C520        C524   1.531       .  S
C520        C522   1.547       .  S
C520        H526   1.107       .  S
C521        H527   1.081       .  S
C521        C522   1.381       .  D
C522        C625   1.506       .  S
C523        H528   1.088       .  S
C523        C524   1.348       .  D
C524        C695   1.473       .  S
C529        C530   1.542       .  S
C529        C535   1.535       .  S
C529        C533   1.546       .  S
C529       C1028   1.531       .  S
C530        H537   1.082       .  S
C530        C531   1.369       .  D
C531        C532   1.541       .  S
C531        C650   1.490       .  S
C532        C536   1.525       .  S
C532        C534   1.541       .  S
C532        H538   1.111       .  S
C533        H539   1.083       .  S
C533        C534   1.366       .  D
C534        C611   1.476       .  S
C535        H540   1.088       .  S
C535        C536   1.354       .  D
C536        C667   1.471       .  S
In541       O543   2.256       .  S
In541       O544   2.303       .  S
In541       O552   2.252       .  S
In541       O546   2.233       .  S
In541       O548   2.244       .  S
In541       O549   2.301       .  S
In541       O550   2.238       .  S
In541       O553   2.253       .  S
C542        O548   1.262       .  A
C542        O550   1.264       .  A
C542        C597   1.485       .  S
O543        C551   1.258       .  A
O544        C551   1.264       .  A
C545        O552   1.264       .  A
C545        O546   1.262       .  A
C545       C1283   1.486       .  S
C547        O549   1.265       .  A
C547        O553   1.258       .  A
C547        C573   1.484       .  S
C551        C564   1.486       .  S
In554       O556   2.249       .  S
In554       O557   2.306       .  S
In554       O565   2.261       .  S
In554       O559   2.217       .  S
In554       O561   2.225       .  S
In554       O562   2.304       .  S
In554       O563   2.263       .  S
In554       O566   2.230       .  S
C555        O561   1.262       .  A
C555        O563   1.264       .  A
C555       C1129   1.483       .  S
O556        C564   1.256       .  A
O557        C564   1.267       .  A
C558        O565   1.265       .  A
C558        O559   1.264       .  A
C558       C1381   1.488       .  S
C560        O562   1.269       .  A
C560        O566   1.257       .  A
C560        C590   1.481       .  S
In567       O569   2.239   1_556  S
In567       O570   2.297   1_556  S
In567       O578   2.252       .  S
In567       O572   2.241       .  S
In567       O574   2.242   1_556  S
In567       O575   2.300       .  S
In567       O576   2.243   1_556  S
In567       O579   2.250       .  S
C568        O574   1.265       .  A
C568        O576   1.264       .  A
C568        C681   1.487       .  S
O569        C577   1.257       .  A
O570        C577   1.267       .  A
C571        O578   1.264       .  A
C571        O572   1.264       .  A
C571        C933   1.488       .  S
C573        O575   1.265       .  A
C573        O579   1.258       .  A
C577        C586   1.480       .  S
In580       O582   2.236       .  S
In580       O583   2.304       .  S
In580       O591   2.249       .  S
In580       O585   2.227       .  S
In580       O587   2.235       .  S
In580       O588   2.301       .  S
In580       O589   2.253       .  S
In580       O592   2.244       .  S
C581        O587   1.264       .  A
C581        O589   1.264       .  A
C581        C793   1.488       .  S
O582        C590   1.257       .  A
O583        C590   1.266       .  A
C584        O591   1.263       .  A
C584        O585   1.264       .  A
C584       C1056   1.478       .  S
C586        O588   1.264       .  A
C586        O592   1.256       .  A
C593        C594   1.413       .  A
C593        C598   1.406       .  A
C593        H600   1.080       .  S
C594        C595   1.424       .  A
C595        C596   1.401       .  A
C595        N602   1.432       .  S
C596        C597   1.399       .  A
C596        H601   1.084       .  S
C597        C598   1.409       .  A
C598        N599   1.432       .  S
N599        H603   1.046       .  S
N599        H604   1.045       .  S
N602        H605   1.046       .  S
N602        H606   1.045       .  S
C607        C608   1.402       .  A
C607        C612   1.409   1_655  A
C607        H614   1.084       .  S
C608        C609   1.407       .  A
C609        C610   1.402   1_655  A
C609        N616   1.435       .  S
C610        C611   1.398       .  A
C610        H615   1.082       .  S
C611        C612   1.409       .  A
C612        N613   1.437       .  S
N613        H617   1.044       .  S
N613        H618   1.045       .  S
N616        H619   1.045       .  S
N616        H620   1.046       .  S
C621        C622   1.410       .  A
C621        C626   1.416       .  A
C621        H628   1.083       .  S
C622        C623   1.415       .  A
C623        C624   1.393       .  A
C623        N630   1.431       .  S
C624        C625   1.402       .  A
C624        H629   1.078       .  S
C625        C626   1.417       .  A
C626        N627   1.436       .  S
N627        H631   1.046       .  S
N627        H632   1.045       .  S
N630        H633   1.045       .  S
N630        H634   1.046       .  S
C635        C636   1.402       .  A
C635        C640   1.406   1_455  A
C635        H642   1.084       .  S
C636        C637   1.415       .  A
C637        C638   1.402   1_455  A
C637        N644   1.437       .  S
C638        C639   1.400       .  A
C638        H643   1.084       .  S
C639        C640   1.406       .  A
C640        N641   1.435       .  S
N641        H645   1.044       .  S
N641        H646   1.047       .  S
N644        H647   1.044       .  S
N644        H648   1.043       .  S
C649        C650   1.403       .  A
C649        C654   1.404       .  A
C649        H656   1.082       .  S
C650        C651   1.420       .  A
C651        C652   1.394       .  A
C651        N658   1.431       .  S
C652        C653   1.403       .  A
C652        H657   1.083       .  S
C653        C654   1.410       .  A
C654        N655   1.429       .  S
N655        H659   1.045       .  S
N655        H660   1.046       .  S
N658        H661   1.044       .  S
N658        H662   1.043       .  S
C663        C664   1.401       .  A
C663        C668   1.401       .  A
C663        H670   1.084       .  S
C664        C665   1.405       .  A
C665        C666   1.399       .  A
C665        N672   1.431       .  S
C666        C667   1.398       .  A
C666        H671   1.078       .  S
C667        C668   1.407       .  A
C668        N669   1.432       .  S
N669        H673   1.046       .  S
N669        H674   1.045       .  S
N672        H675   1.045       .  S
N672        H676   1.046       .  S
C677        C678   1.414       .  A
C677        C682   1.404       .  A
C677        H684   1.077       .  S
C678        C679   1.420       .  A
C679        C680   1.406       .  A
C679        N686   1.432       .  S
C680        C681   1.402       .  A
C680        H685   1.084       .  S
C681        C682   1.407       .  A
C682        N683   1.433       .  S
N683        H687   1.046       .  S
N683        H688   1.045       .  S
N686        H689   1.046       .  S
N686        H690   1.046       .  S
C691        C692   1.396       .  A
C691        C696   1.398       .  A
C691        H698   1.084       .  S
C692        C693   1.413       .  A
C693        C694   1.398       .  A
C693        N700   1.440       .  S
C694        C695   1.397       .  A
C694        H699   1.080       .  S
C695        C696   1.416       .  A
C696        N697   1.431       .  S
N697        H701   1.039       .  S
N697        H702   1.045       .  S
N700        H703   1.044       .  S
N700        H704   1.045       .  S
C705        C706   1.397   1_655  A
C705        C710   1.390       .  A
C705        H712   1.080   1_654  S
C706        C707   1.414   1_455  A
C707        C708   1.411       .  A
C707        N714   1.437   1_655  S
C708        C709   1.407       .  A
C708        H713   1.083       .  S
C709        C710   1.414       .  A
C710        N711   1.431   1_554  S
N711        H715   1.046       .  S
N711        H716   1.045       .  S
N714        H717   1.045       .  S
N714        H718   1.046   1_455  S
C719        C720   1.398       .  A
C719        C724   1.399       .  A
C719        H726   1.084       .  S
C720        C721   1.410       .  A
C721        C722   1.409       .  A
C721        N728   1.438       .  S
C722        C723   1.402       .  A
C722        H727   1.084       .  S
C723        C724   1.413       .  A
C724        N725   1.439       .  S
N725        H729   1.045       .  S
N725        H730   1.045       .  S
N728        H731   1.045       .  S
N728        H732   1.046       .  S
C733        C734   1.397       .  A
C733        C738   1.395       .  A
C733        H740   1.084       .  S
C734        C735   1.415       .  A
C735        C736   1.403       .  A
C735        N742   1.432       .  S
C736        C737   1.403       .  A
C736        H741   1.084       .  S
C737        C738   1.407       .  A
C738        N739   1.433       .  S
N739        H743   1.046       .  S
N739        H744   1.045       .  S
N742        H745   1.046       .  S
N742        H746   1.045       .  S
C747        C748   1.406       .  A
C747        C752   1.401       .  A
C747        H754   1.084       .  S
C748        C749   1.401       .  A
C749        C750   1.400       .  A
C749        N756   1.430       .  S
C750        C751   1.405       .  A
C750        H755   1.084       .  S
C751        C752   1.401       .  A
C752        N753   1.432       .  S
N753        H757   1.045       .  S
N753        H758   1.046       .  S
N756        H759   1.046       .  S
N756        H760   1.046       .  S
C761        C762   1.409       .  A
C761        C766   1.408   1_455  A
C761        H768   1.083       .  S
C762        C763   1.411       .  A
C763        C764   1.393   1_455  A
C763        N770   1.432   1_554  S
C764        C765   1.403       .  A
C764        H769   1.078   1_554  S
C765        C766   1.417       .  A
C766        N767   1.432       .  S
N767        H771   1.043       .  S
N767        H772   1.045       .  S
N770        H773   1.046       .  S
N770        H774   1.046       .  S
C775        C776   1.403       .  A
C775        C780   1.408       .  A
C775        H782   1.084       .  S
C776        C777   1.409       .  A
C777        C778   1.400       .  A
C777        N784   1.433       .  S
C778        C779   1.400       .  A
C778        H783   1.084       .  S
C779        C780   1.408       .  A
C780        N781   1.432       .  S
N781        H785   1.046       .  S
N781        H786   1.045       .  S
N784        H787   1.046       .  S
N784        H788   1.046       .  S
C789        C790   1.411       .  A
C789        C794   1.409       .  A
C789        H796   1.078       .  S
C790        C791   1.420       .  A
C791        C792   1.401       .  A
C791        N798   1.433       .  S
C792        C793   1.400       .  A
C792        H797   1.084       .  S
C793        C794   1.411       .  A
C794        N795   1.432       .  S
N795        H799   1.045       .  S
N795        H800   1.046       .  S
N798        H801   1.046       .  S
N798        H802   1.046       .  S
C803        C804   1.399       .  A
C803        C808   1.402   1_455  A
C803        H810   1.083       .  S
C804        C805   1.413       .  A
C805        C806   1.403   1_455  A
C805        N812   1.431       .  S
C806        C807   1.403       .  A
C806        H811   1.084       .  S
C807        C808   1.415       .  A
C808        N809   1.438       .  S
N809        H813   1.046       .  S
N809        H814   1.043       .  S
N812        H815   1.046       .  S
N812        H816   1.043       .  S
C817        C818   1.411       .  A
C817        C822   1.414       .  A
C817        H824   1.082       .  S
C818        C819   1.416       .  A
C819        C820   1.396       .  A
C819        N826   1.430       .  S
C820        C821   1.401       .  A
C820        H825   1.081       .  S
C821        C822   1.412       .  A
C822        N823   1.436       .  S
N823        H827   1.046       .  S
N823        H828   1.045       .  S
N826        H829   1.046       .  S
N826        H830   1.046       .  S
C831        C832   1.404       .  A
C831        C836   1.402       .  A
C831        H838   1.084       .  S
C832        C833   1.408       .  A
C833        C834   1.404       .  A
C833        N840   1.431       .  S
C834        C835   1.406       .  A
C834        H839   1.082       .  S
C835        C836   1.414       .  A
C836        N837   1.432       .  S
N837        H841   1.046       .  S
N837        H842   1.045       .  S
N840        H843   1.045       .  S
N840        H844   1.046       .  S
C845        C846   1.400       .  A
C845        C850   1.402   1_655  A
C845        H852   1.084       .  S
C846        C847   1.408       .  A
C847        C848   1.406   1_655  A
C847        N854   1.436       .  S
C848        C849   1.402       .  A
C848        H853   1.084       .  S
C849        C850   1.415       .  A
C850        N851   1.438       .  S
N851        H855   1.046       .  S
N851        H856   1.044       .  S
N854        H857   1.045       .  S
N854        H858   1.046       .  S
C859        C860   1.405       .  A
C859        C864   1.412       .  A
C859        H866   1.083       .  S
C860        C861   1.418       .  A
C861        C862   1.393       .  A
C861        N868   1.441       .  S
C862        C863   1.399       .  A
C862        H867   1.084       .  S
C863        C864   1.410       .  A
C864        N865   1.437       .  S
N865        H869   1.045       .  S
N865        H870   1.044       .  S
N868        H871   1.044       .  S
N868        H872   1.045       .  S
C873        C874   1.398       .  A
C873        C878   1.399       .  A
C873        H880   1.083       .  S
C874        C875   1.410       .  A
C875        C876   1.404       .  A
C875        N882   1.438       .  S
C876        C877   1.400       .  A
C876        H881   1.084       .  S
C877        C878   1.416       .  A
C878        N879   1.438       .  S
N879        H883   1.044       .  S
N879        H884   1.042       .  S
N882        H885   1.044       .  S
N882        H886   1.046       .  S
C887        C888   1.402       .  A
C887        C892   1.400       .  A
C887        H894   1.084       .  S
C888        C889   1.410       .  A
C889        C890   1.408       .  A
C889        N896   1.437       .  S
C890        C891   1.402       .  A
C890        H895   1.084       .  S
C891        C892   1.402       .  A
C892        N893   1.432       .  S
N893        H897   1.046       .  S
N893        H898   1.045       .  S
N896        H899   1.045       .  S
N896        H900   1.046   1_556  S
C901        C902   1.404       .  A
C901        C906   1.397       .  A
C901        H908   1.085       .  S
C902        C903   1.399       .  A
C903        C904   1.398       .  A
C903        N910   1.432       .  S
C904        C905   1.403       .  A
C904        H909   1.084       .  S
C905        C906   1.401       .  A
C906        N907   1.431       .  S
N907        H911   1.046       .  S
N907        H912   1.045       .  S
N910        H913   1.045       .  S
N910        H914   1.045       .  S
C915        C916   1.410       .  A
C915        C920   1.412   1_655  A
C915        H922   1.083       .  S
C916        C917   1.416       .  A
C917        C918   1.391   1_655  A
C917        N924   1.430   1_556  S
C918        C919   1.396       .  A
C918        H923   1.082   1_556  S
C919        C920   1.413       .  A
C920        N921   1.437       .  S
N921        H925   1.046       .  S
N921        H926   1.046       .  S
N924        H927   1.045       .  S
N924        H928   1.046       .  S
C929        C930   1.413       .  A
C929        C934   1.404       .  A
C929        H936   1.076       .  S
C930        C931   1.433       .  A
C931        C932   1.401       .  A
C931        N938   1.433       .  S
C932        C933   1.400       .  A
C932        H937   1.084       .  S
C933        C934   1.407       .  A
C934        N935   1.432       .  S
N935        H939   1.046       .  S
N935        H940   1.045       .  S
N938        H941   1.042       .  S
N938        H942   1.044       .  S
C943        C944   1.402       .  A
C943        C948   1.396       .  A
C943        H950   1.084       .  S
C944        C945   1.403       .  A
C945        C946   1.404       .  A
C945        N952   1.432       .  S
C946        C947   1.405       .  A
C946        H951   1.084       .  S
C947        C948   1.401       .  A
C948        N949   1.432       .  S
N949        H953   1.046       .  S
N949        H954   1.045       .  S
N952        H955   1.046       .  S
N952        H956   1.045       .  S
C957        C958   1.397       .  A
C957        C962   1.391   1_655  A
C957        H964   1.078   1_556  S
C958        C959   1.414       .  A
C959        C960   1.412   1_655  A
C959        N966   1.432       .  S
C960        C961   1.411       .  A
C960        H965   1.084       .  S
C961        C962   1.418       .  A
C962        N963   1.429   1_556  S
N963        H967   1.040       .  S
N963        H968   1.041       .  S
N966        H969   1.045       .  S
N966        H970   1.045       .  S
C971        C972   1.398       .  A
C971        C976   1.397       .  A
C971        H978   1.084       .  S
C972        C973   1.413       .  A
C973        C974   1.411       .  A
C973        N980   1.437       .  S
C974        C975   1.403       .  A
C974        H979   1.084       .  S
C975        C976   1.406       .  A
C976        N977   1.432       .  S
N977        H981   1.045       .  S
N977        H982   1.046       .  S
N980        H983   1.045       .  S
N980        H984   1.046       .  S
C985        C986   1.413       .  A
C985        C990   1.401       .  A
C985        H992   1.078       .  S
C986        C987   1.421       .  A
C987        C988   1.405       .  A
C987        N994   1.432       .  S
C988        C989   1.402       .  A
C988        H993   1.084       .  S
C989        C990   1.415       .  A
C990        N991   1.433       .  S
N991        H995   1.044       .  S
N991        H996   1.046       .  S
N994        H997   1.046       .  S
N994        H998   1.046       .  S
C999       C1000   1.399       .  A
C999       C1004   1.402       .  A
C999       H1006   1.084       .  S
C1000      C1001   1.412       .  A
C1001      C1002   1.409       .  A
C1001      N1008   1.438       .  S
C1002      C1003   1.410       .  A
C1002      H1007   1.078       .  S
C1003      C1004   1.422       .  A
C1004      N1005   1.433       .  S
N1005      H1009   1.046       .  S
N1005      H1010   1.046       .  S
N1008      H1011   1.046       .  S
N1008      H1012   1.045       .  S
C1013      C1014   1.397       .  A
C1013      C1018   1.392       .  A
C1013      H1020   1.084       .  S
C1014      C1015   1.408       .  A
C1015      C1016   1.406       .  A
C1015      N1022   1.432       .  S
C1016      C1017   1.412       .  A
C1016      H1021   1.078       .  S
C1017      C1018   1.431       .  A
C1018      N1019   1.434       .  S
N1019      H1023   1.042       .  S
N1019      H1024   1.044       .  S
N1022      H1025   1.045       .  S
N1022      H1026   1.046       .  S
C1027      C1028   1.412       .  A
C1027      C1032   1.411       .  A
C1027      H1034   1.078       .  S
C1028      C1029   1.419       .  A
C1029      C1030   1.394       .  A
C1029      N1036   1.431       .  S
C1030      C1031   1.397       .  A
C1030      H1035   1.084       .  S
C1031      C1032   1.413       .  A
C1032      N1033   1.437       .  S
N1033      H1037   1.044       .  S
N1033      H1038   1.047       .  S
N1036      H1039   1.046       .  S
N1036      H1040   1.045       .  S
C1041      C1042   1.401       .  A
C1041      C1046   1.407       .  A
C1041      H1048   1.084       .  S
C1042      C1043   1.405       .  A
C1043      C1044   1.402       .  A
C1043      N1050   1.432       .  S
C1044      C1045   1.402       .  A
C1044      H1049   1.082       .  S
C1045      C1046   1.410       .  A
C1046      N1047   1.437       .  S
N1047      H1051   1.044       .  S
N1047      H1052   1.046       .  S
N1050      H1053   1.045       .  S
N1050      H1054   1.046       .  S
C1055      C1056   1.400       .  A
C1055      C1060   1.405       .  A
C1055      H1062   1.084       .  S
C1056      C1057   1.404       .  A
C1057      C1058   1.400       .  A
C1057      N1064   1.433       .  S
C1058      C1059   1.413       .  A
C1058      H1063   1.077       .  S
C1059      C1060   1.421       .  A
C1060      N1061   1.432       .  S
N1061      H1065   1.046       .  S
N1061      H1066   1.046       .  S
N1064      H1067   1.046       .  S
N1064      H1068   1.046       .  S
C1069      C1070   1.403       .  A
C1069      C1074   1.403       .  A
C1069      H1076   1.084       .  S
C1070      C1071   1.405       .  A
C1071      C1072   1.399       .  A
C1071      N1078   1.431       .  S
C1072      C1073   1.403       .  A
C1072      H1077   1.081       .  S
C1073      C1074   1.414       .  A
C1074      N1075   1.438       .  S
N1075      H1079   1.046       .  S
N1075      H1080   1.045       .  S
N1078      H1081   1.045       .  S
N1078      H1082   1.046       .  S
C1083      C1084   1.412       .  A
C1083      C1088   1.402       .  A
C1083      H1090   1.077       .  S
C1084      C1085   1.419       .  A
C1085      C1086   1.403       .  A
C1085      N1092   1.433       .  S
C1086      C1087   1.402       .  A
C1086      H1091   1.084       .  S
C1087      C1088   1.416       .  A
C1088      N1089   1.433       .  S
N1089      H1093   1.044       .  S
N1089      H1094   1.046       .  S
N1092      H1095   1.045       .  S
N1092      H1096   1.046       .  S
C1097      C1098   1.407       .  A
C1097      C1102   1.414       .  A
C1097      H1104   1.083       .  S
C1098      C1099   1.409       .  A
C1099      C1100   1.393       .  A
C1099      N1106   1.429       .  S
C1100      C1101   1.399       .  A
C1100      H1105   1.082       .  S
C1101      C1102   1.411       .  A
C1102      N1103   1.436       .  S
N1103      H1107   1.046       .  S
N1103      H1108   1.045       .  S
N1106      H1109   1.046       .  S
N1106      H1110   1.046       .  S
C1111      C1112   1.403       .  A
C1111      C1116   1.402       .  A
C1111      H1118   1.083       .  S
C1112      C1113   1.414       .  A
C1113      C1114   1.400       .  A
C1113      N1120   1.439       .  S
C1114      C1115   1.399       .  A
C1114      H1119   1.082       .  S
C1115      C1116   1.404       .  A
C1116      N1117   1.432       .  S
N1117      H1121   1.046       .  S
N1117      H1122   1.045       .  S
N1120      H1123   1.043       .  S
N1120      H1124   1.046       .  S
C1125      C1126   1.412       .  A
C1125      C1130   1.402       .  A
C1125      H1132   1.076       .  S
C1126      C1127   1.432       .  A
C1127      C1128   1.402       .  A
C1127      N1134   1.434       .  S
C1128      C1129   1.399       .  A
C1128      H1133   1.084       .  S
C1129      C1130   1.406       .  A
C1130      N1131   1.433       .  S
N1131      H1135   1.046       .  S
N1131      H1136   1.045       .  S
N1134      H1137   1.043       .  S
N1134      H1138   1.043       .  S
C1139      C1140   1.402       .  A
C1139      C1144   1.397       .  A
C1139      H1146   1.083       .  S
C1140      C1141   1.413       .  A
C1141      C1142   1.401       .  A
C1141      N1148   1.432       .  S
C1142      C1143   1.402       .  A
C1142      H1147   1.084       .  S
C1143      C1144   1.410       .  A
C1144      N1145   1.438       .  S
N1145      H1149   1.047       .  S
N1145      H1150   1.044       .  S
N1148      H1151   1.045       .  S
N1148      H1152   1.045       .  S
C1153      C1154   1.401       .  A
C1153      C1158   1.404       .  A
C1153      H1160   1.082       .  S
C1154      C1155   1.405       .  A
C1155      C1156   1.398       .  A
C1155      N1162   1.433       .  S
C1156      C1157   1.400       .  A
C1156      H1161   1.083       .  S
C1157      C1158   1.407       .  A
C1158      N1159   1.432       .  S
N1159      H1163   1.044       .  S
N1159      H1164   1.047       .  S
N1162      H1165   1.045       .  S
N1162      H1166   1.045       .  S
C1167      C1168   1.400       .  A
C1167      C1172   1.397       .  A
C1167      H1174   1.084       .  S
C1168      C1169   1.414       .  A
C1169      C1170   1.403       .  A
C1169      N1176   1.435       .  S
C1170      C1171   1.399       .  A
C1170      H1175   1.084       .  S
C1171      C1172   1.412       .  A
C1172      N1173   1.430       .  S
N1173      H1177   1.043       .  S
N1173      H1178   1.045       .  S
N1176      H1179   1.045       .  S
N1176      H1180   1.045       .  S
C1181      C1182   1.412       .  A
C1181      C1186   1.402       .  A
C1181      H1188   1.077       .  S
C1182      C1183   1.431       .  A
C1183      C1184   1.398       .  A
C1183      N1190   1.432       .  S
C1184      C1185   1.399       .  A
C1184      H1189   1.084       .  S
C1185      C1186   1.414       .  A
C1186      N1187   1.433       .  S
N1187      H1191   1.044       .  S
N1187      H1192   1.046       .  S
N1190      H1193   1.040       .  S
N1190      H1194   1.045       .  S
C1195      C1196   1.402       .  A
C1195      C1200   1.402       .  A
C1195      H1202   1.084       .  S
C1196      C1197   1.403       .  A
C1197      C1198   1.388       .  A
C1197      N1204   1.430       .  S
C1198      C1199   1.400       .  A
C1198      H1203   1.085       .  S
C1199      C1200   1.414       .  A
C1200      N1201   1.431       .  S
N1201      H1205   1.043       .  S
N1201      H1206   1.045       .  S
N1204      H1207   1.046       .  S
N1204      H1208   1.046       .  S
C1209      C1210   1.406       .  A
C1209      C1214   1.405       .  A
C1209      H1216   1.084       .  S
C1210      C1211   1.410       .  A
C1211      C1212   1.407       .  A
C1211      N1218   1.431       .  S
C1212      C1213   1.405       .  A
C1212      H1217   1.084       .  S
C1213      C1214   1.411       .  A
C1214      N1215   1.432       .  S
N1215      H1219   1.046       .  S
N1215      H1220   1.045       .  S
N1218      H1221   1.045       .  S
N1218      H1222   1.046       .  S
C1223      C1224   1.398       .  A
C1223      C1228   1.395       .  A
C1223      H1230   1.084       .  S
C1224      C1225   1.411       .  A
C1225      C1226   1.408       .  A
C1225      N1232   1.436       .  S
C1226      C1227   1.400       .  A
C1226      H1231   1.084       .  S
C1227      C1228   1.407       .  A
C1228      N1229   1.433       .  S
N1229      H1233   1.046       .  S
N1229      H1234   1.046       .  S
N1232      H1235   1.045       .  S
N1232      H1236   1.045       .  S
C1237      C1238   1.398       .  A
C1237      C1242   1.398       .  A
C1237      H1244   1.075       .  S
C1238      C1239   1.412       .  A
C1239      C1240   1.405       .  A
C1239      N1246   1.438       .  S
C1240      C1241   1.406       .  A
C1240      H1245   1.083       .  S
C1241      C1242   1.406       .  A
C1242      N1243   1.434       .  S
N1243      H1247   1.045       .  S
N1243      H1248   1.044       .  S
N1246      H1249   1.045       .  S
N1246      H1250   1.046       .  S
C1251      C1252   1.399       .  A
C1251      C1256   1.401       .  A
C1251      H1258   1.085       .  S
C1252      C1253   1.405       .  A
C1253      C1254   1.403       .  A
C1253      N1260   1.430       .  S
C1254      C1255   1.400       .  A
C1254      H1259   1.084       .  S
C1255      C1256   1.419       .  A
C1256      N1257   1.436       .  S
N1257      H1261   1.044       .  S
N1257      H1262   1.041       .  S
N1260      H1263   1.045       .  S
N1260      H1264   1.045       .  S
C1265      C1266   1.397       .  A
C1265      C1270   1.395       .  A
C1265      H1272   1.080       .  S
C1266      C1267   1.411       .  A
C1267      C1268   1.414       .  A
C1267      N1274   1.437       .  S
C1268      C1269   1.406       .  A
C1268      H1273   1.083       .  S
C1269      C1270   1.406       .  A
C1270      N1271   1.430       .  S
N1271      H1275   1.046       .  S
N1271      H1276   1.046       .  S
N1274      H1277   1.046       .  S
N1274      H1278   1.045       .  S
C1279      C1280   1.414       .  A
C1279      C1284   1.407       .  A
C1279      H1286   1.077       .  S
C1280      C1281   1.420       .  A
C1281      C1282   1.405       .  A
C1281      N1288   1.432       .  S
C1282      C1283   1.401       .  A
C1282      H1287   1.084       .  S
C1283      C1284   1.411       .  A
C1284      N1285   1.439       .  S
N1285      H1289   1.046       .  S
N1285      H1290   1.045       .  S
N1288      H1291   1.046       .  S
N1288      H1292   1.045       .  S
C1293      C1294   1.405       .  A
C1293      C1298   1.399       .  A
C1293      H1300   1.084       .  S
C1294      C1295   1.413       .  A
C1295      C1296   1.405       .  A
C1295      N1302   1.429       .  S
C1296      C1297   1.399       .  A
C1296      H1301   1.084       .  S
C1297      C1298   1.411       .  A
C1298      N1299   1.431       .  S
N1299      H1303   1.046       .  S
N1299      H1304   1.046       .  S
N1302      H1305   1.045       .  S
N1302      H1306   1.046       .  S
C1307      C1308   1.397       .  A
C1307      C1312   1.398       .  A
C1307      H1314   1.084       .  S
C1308      C1309   1.409       .  A
C1309      C1310   1.407       .  A
C1309      N1316   1.432       .  S
C1310      C1311   1.411       .  A
C1310      H1315   1.079       .  S
C1311      C1312   1.423       .  A
C1312      N1313   1.430       .  S
N1313      H1317   1.046       .  S
N1313      H1318   1.046       .  S
N1316      H1319   1.046       .  S
N1316      H1320   1.045       .  S
C1321      C1322   1.404       .  A
C1321      C1326   1.405       .  A
C1321      H1328   1.084       .  S
C1322      C1323   1.419       .  A
C1323      C1324   1.392       .  A
C1323      N1330   1.430       .  S
C1324      C1325   1.399       .  A
C1324      H1329   1.084       .  S
C1325      C1326   1.407       .  A
C1326      N1327   1.432       .  S
N1327      H1331   1.046       .  S
N1327      H1332   1.045       .  S
N1330      H1333   1.045       .  S
N1330      H1334   1.042       .  S
C1335      C1336   1.403       .  A
C1335      C1340   1.403       .  A
C1335      H1342   1.084       .  S
C1336      C1337   1.419       .  A
C1337      C1338   1.404       .  A
C1337      N1344   1.439       .  S
C1338      C1339   1.401       .  A
C1338      H1343   1.082       .  S
C1339      C1340   1.412       .  A
C1340      N1341   1.437       .  S
N1341      H1345   1.045       .  S
N1341      H1346   1.044       .  S
N1344      H1347   1.043       .  S
N1344      H1348   1.045       .  S
C1349      C1350   1.412       .  A
C1349      C1354   1.395       .  A
C1349      H1356   1.074       .  S
C1350      C1351   1.426       .  A
C1351      C1352   1.400       .  A
C1351      N1358   1.434       .  S
C1352      C1353   1.402       .  A
C1352      H1357   1.084       .  S
C1353      C1354   1.411       .  A
C1354      N1355   1.433       .  S
N1355      H1359   1.044       .  S
N1355      H1360   1.046       .  S
N1358      H1361   1.042       .  S
N1358      H1362   1.044       .  S
C1363      C1364   1.401       .  A
C1363      C1368   1.403       .  A
C1363      H1370   1.080       .  S
C1364      C1365   1.407       .  A
C1365      C1366   1.399       .  A
C1365      N1372   1.437       .  S
C1366      C1367   1.407       .  A
C1366      H1371   1.084       .  S
C1367      C1368   1.417       .  A
C1368      N1369   1.430       .  S
N1369      H1373   1.044       .  S
N1369      H1374   1.042       .  S
N1372      H1375   1.046       .  S
N1372      H1376   1.045       .  S
C1377      C1378   1.415       .  A
C1377      C1382   1.414       .  A
C1377      H1384   1.078       .  S
C1378      C1379   1.429       .  A
C1379      C1380   1.391       .  A
C1379      N1386   1.434       .  S
C1380      C1381   1.398       .  A
C1380      H1385   1.084       .  S
C1381      C1382   1.413       .  A
C1382      N1383   1.438       .  S
N1383      H1387   1.045       .  S
N1383      H1388   1.046       .  S
N1386      H1389   1.043       .  S
N1386      H1390   1.042       .  S
C1391      C1392   1.401       .  A
C1391      C1396   1.395       .  A
C1391      H1398   1.084       .  S
C1392      C1393   1.408       .  A
C1393      C1394   1.408       .  A
C1393      N1400   1.431       .  S
C1394      C1395   1.403       .  A
C1394      H1399   1.084       .  S
C1395      C1396   1.404       .  A
C1396      N1397   1.432       .  S
N1397      H1401   1.046       .  S
N1397      H1402   1.045       .  S
N1400      H1403   1.045       .  S
N1400      H1404   1.046       .  S
C1405      C1406   1.402       .  A
C1405      C1410   1.398       .  A
C1405      H1412   1.081       .  S
C1406      C1407   1.415       .  A
C1407      C1408   1.404       .  A
C1407      N1414   1.437       .  S
C1408      C1409   1.403       .  A
C1408      H1413   1.082       .  S
C1409      C1410   1.404       .  A
C1410      N1411   1.437       .  S
N1411      H1415   1.046       .  S
N1411      H1416   1.045       .  S
N1414      H1417   1.042       .  S
N1414      H1418   1.046       .  S
C1419      C1420   1.404       .  A
C1419      C1424   1.411       .  A
C1419      H1426   1.084       .  S
C1420      C1421   1.411       .  A
C1421      C1422   1.394       .  A
C1421      N1428   1.440       .  S
C1422      C1423   1.397       .  A
C1422      H1427   1.083       .  S
C1423      C1424   1.409       .  A
C1424      N1425   1.437       .  S
N1425      H1429   1.046       .  S
N1425      H1430   1.045       .  S
N1428      H1431   1.045       .  S
N1428      H1432   1.045       .  S
C1433      C1434   1.402       .  A
C1433      C1438   1.405       .  A
C1433      H1440   1.084       .  S
C1434      C1435   1.408       .  A
C1435      C1436   1.401       .  A
C1435      N1442   1.436       .  S
C1436      C1437   1.398       .  A
C1436      H1441   1.084       .  S
C1437      C1438   1.407       .  A
C1438      N1439   1.432       .  S
N1439      H1443   1.046       .  S
N1439      H1444   1.045       .  S
N1442      H1445   1.046       .  S
N1442      H1446   1.045       .  S
C1447      C1448   1.404       .  A
C1447      C1452   1.393       .  A
C1447      H1454   1.084       .  S
C1448      C1449   1.411       .  A
C1449      C1450   1.408       .  A
C1449      N1456   1.435       .  S
C1450      C1451   1.400       .  A
C1450      H1455   1.084       .  S
C1451      C1452   1.405       .  A
C1452      N1453   1.433       .  S
N1453      H1457   1.046       .  S
N1453      H1458   1.045       .  S
N1456      H1459   1.044       .  S
N1456      H1460   1.045       .  S
C1461      C1462   1.404       .  A
C1461      C1466   1.397       .  A
C1461      H1468   1.083       .  S
C1462      C1463   1.415       .  A
C1463      C1464   1.410       .  A
C1463      N1470   1.437       .  S
C1464      C1465   1.406       .  A
C1464      H1469   1.083       .  S
C1465      C1466   1.411       .  A
C1466      N1467   1.432       .  S
N1467      H1471   1.046       .  S
N1467      H1472   1.046       .  S
N1470      H1473   1.045       .  S
N1470      H1474   1.046       .  S
C1475      C1476   1.397       .  A
C1475      C1480   1.397       .  A
C1475      H1482   1.084       .  S
C1476      C1477   1.411       .  A
C1477      C1478   1.411       .  A
C1477      N1484   1.438       .  S
C1478      C1479   1.405       .  A
C1478      H1483   1.083       .  S
C1479      C1480   1.408       .  A
C1480      N1481   1.435       .  S
N1481      H1485   1.045       .  S
N1481      H1486   1.046       .  S
N1484      H1487   1.046       .  S
N1484      H1488   1.044       .  S
C1489      C1490   1.399       .  A
C1489      C1494   1.401       .  A
C1489      H1496   1.084       .  S
C1490      C1491   1.407       .  A
C1491      C1492   1.402       .  A
C1491      N1498   1.433       .  S
C1492      C1493   1.412       .  A
C1492      H1497   1.075       .  S
C1493      C1494   1.431       .  A
C1494      N1495   1.434       .  S
N1495      H1499   1.043       .  S
N1495      H1500   1.043       .  S
N1498      H1501   1.045       .  S
N1498      H1502   1.046       .  S
C1503      C1504   1.399       .  A
C1503      C1508   1.398       .  A
C1503      H1510   1.084       .  S
C1504      C1505   1.411       .  A
C1505      C1506   1.409       .  A
C1505      N1512   1.432       .  S
C1506      C1507   1.411       .  A
C1506      H1511   1.078       .  S
C1507      C1508   1.419       .  A
C1508      N1509   1.433       .  S
N1509      H1513   1.045       .  S
N1509      H1514   1.046       .  S
N1512      H1515   1.045       .  S
N1512      H1516   1.046       .  S
C1517      C1518   1.399       .  A
C1517      C1522   1.399       .  A
C1517      H1524   1.084       .  S
C1518      C1519   1.409       .  A
C1519      C1520   1.407       .  A
C1519      N1526   1.438       .  S
C1520      C1521   1.413       .  A
C1520      H1525   1.076       .  S
C1521      C1522   1.418       .  A
C1522      N1523   1.432       .  S
N1523      H1527   1.046       .  S
N1523      H1528   1.046       .  S
N1526      H1529   1.046       .  S
N1526      H1530   1.045       .  S
C1531      C1532   1.402       .  A
C1531      C1536   1.404       .  A
C1531      H1538   1.084       .  S
C1532      C1533   1.409       .  A
C1533      C1534   1.405       .  A
C1533      N1540   1.439       .  S
C1534      C1535   1.414       .  A
C1534      H1539   1.075       .  S
C1535      C1536   1.419       .  A
C1536      N1537   1.432       .  S
N1537      H1541   1.046       .  S
N1537      H1542   1.045       .  S
N1540      H1543   1.046       .  S
N1540      H1544   1.045       .  S
C1545      C1546   1.400       .  A
C1545      C1550   1.400       .  A
C1545      H1552   1.084       .  S
C1546      C1547   1.419       .  A
C1547      C1548   1.407       .  A
C1547      N1554   1.433       .  S
C1548      C1549   1.411       .  A
C1548      H1553   1.079       .  S
C1549      C1550   1.419       .  A
C1550      N1551   1.433       .  S
N1551      H1555   1.046       .  S
N1551      H1556   1.046       .  S
N1554      H1557   1.043       .  S
N1554      H1558   1.047       .  S
C1559      C1560   1.394       .  A
C1559      C1564   1.394       .  A
C1559      H1566   1.084       .  S
C1560      C1561   1.407       .  A
C1561      C1562   1.407       .  A
C1561      N1568   1.432       .  S
C1562      C1563   1.416       .  A
C1562      H1567   1.082       .  S
C1563      C1564   1.433       .  A
C1564      N1565   1.427       .  S
N1565      H1569   1.045       .  S
N1565      H1570   1.040       .  S
N1568      H1571   1.046       .  S
N1568      H1572   1.045       .  S
C1573      C1574   1.401       .  A
C1573      C1578   1.405       .  A
C1573      H1580   1.084       .  S
C1574      C1575   1.413       .  A
C1575      C1576   1.408       .  A
C1575      N1582   1.438       .  S
C1576      C1577   1.409       .  A
C1576      H1581   1.076       .  S
C1577      C1578   1.421       .  A
C1578      N1579   1.433       .  S
N1579      H1583   1.046       .  S
N1579      H1584   1.046       .  S
N1582      H1585   1.046       .  S
N1582      H1586   1.045       .  S
C1587      C1588   1.395       .  A
C1587      C1592   1.389       .  A
C1587      H1594   1.084       .  S
C1588      C1589   1.409       .  A
C1589      C1590   1.409       .  A
C1589      N1596   1.432       .  S
C1590      C1591   1.413       .  A
C1590      H1595   1.079       .  S
C1591      C1592   1.432       .  A
C1592      N1593   1.434       .  S
N1593      H1597   1.042       .  S
N1593      H1598   1.044       .  S
N1596      H1599   1.046       .  S
N1596      H1600   1.046       .  S
C1601      C1602   1.402       .  A
C1601      C1606   1.405       .  A
C1601      H1608   1.084       .  S
C1602      C1603   1.409       .  A
C1603      C1604   1.404       .  A
C1603      N1610   1.433       .  S
C1604      C1605   1.413       .  A
C1604      H1609   1.079       .  S
C1605      C1606   1.421       .  A
C1606      N1607   1.432       .  S
N1607      H1611   1.046       .  S
N1607      H1612   1.045       .  S
N1610      H1613   1.046       .  S
N1610      H1614   1.045       .  S
C1615      C1616   1.414       .  A
C1615      C1620   1.405       .  A
C1615      H1622   1.075       .  S
C1616      C1617   1.434       .  A
C1617      C1618   1.400       .  A
C1617      N1624   1.441       .  S
C1618      C1619   1.397       .  A
C1618      H1623   1.084       .  S
C1619      C1620   1.406       .  A
C1620      N1621   1.438       .  S
N1621      H1625   1.045       .  S
N1621      H1626   1.046       .  S
N1624      H1627   1.038       .  S
N1624      H1628   1.045       .  S
C1629      C1630   1.398       .  A
C1629      C1634   1.394       .  A
C1629      H1636   1.084       .  S
C1630      C1631   1.415       .  A
C1631      C1632   1.415       .  A
C1631      N1638   1.437       .  S
C1632      C1633   1.412       .  A
C1632      H1637   1.079       .  S
C1633      C1634   1.421       .  A
C1634      N1635   1.434       .  S
N1635      H1639   1.045       .  S
N1635      H1640   1.046       .  S
N1638      H1641   1.046       .  S
N1638      H1642   1.045       .  S
C1643      C1644   1.413       .  A
C1643      C1648   1.409       .  A
C1643      H1650   1.078       .  S
C1644      C1645   1.433       .  A
C1645      C1646   1.396       .  A
C1645      N1652   1.434       .  S
C1646      C1647   1.398       .  A
C1646      H1651   1.084       .  S
C1647      C1648   1.409       .  A
C1648      N1649   1.432       .  S
N1649      H1653   1.045       .  S
N1649      H1654   1.046       .  S
N1652      H1655   1.043       .  S
N1652      H1656   1.042       .  S
C1657      C1658   1.399       .  A
C1657      C1662   1.403       .  A
C1657      H1664   1.084       .  S
C1658      C1659   1.407       .  A
C1659      C1660   1.405       .  A
C1659      N1666   1.433       .  S
C1660      C1661   1.414       .  A
C1660      H1665   1.076       .  S
C1661      C1662   1.432       .  A
C1662      N1663   1.433       .  S
N1663      H1667   1.042       .  S
N1663      H1668   1.044       .  S
N1666      H1669   1.046       .  S
N1666      H1670   1.045       .  S
C1671      C1672   1.399       .  A
C1671      C1676   1.397       .  A
C1671      H1678   1.084       .  S
C1672      C1673   1.413       .  A
C1673      C1674   1.412       .  A
C1673      N1680   1.438       .  S
C1674      C1675   1.413       .  A
C1674      H1679   1.078       .  S
C1675      C1676   1.419       .  A
C1676      N1677   1.433       .  S
N1677      H1681   1.046       .  S
N1677      H1682   1.046       .  S
N1680      H1683   1.046       .  S
N1680      H1684   1.045       .  S
C1685      C1686   1.398       .  A
C1685      C1690   1.397       .  A
C1685      H1692   1.084       .  S
C1686      C1687   1.408       .  A
C1687      C1688   1.404       .  A
C1687      N1694   1.433       .  S
C1688      C1689   1.413       .  A
C1688      H1693   1.077       .  S
C1689      C1690   1.430       .  A
C1690      N1691   1.433       .  S
N1691      H1695   1.043       .  S
N1691      H1696   1.044       .  S
N1694      H1697   1.046       .  S
N1694      H1698   1.046       .  S
C1699      C1700   1.409       .  A
C1699      C1704   1.413       .  A
C1699      H1706   1.079       .  S
C1700      C1701   1.420       .  A
C1701      C1702   1.393       .  A
C1701      N1708   1.434       .  S
C1702      C1703   1.396       .  A
C1702      H1707   1.084       .  S
C1703      C1704   1.414       .  A
C1704      N1705   1.437       .  S
N1705      H1709   1.046       .  S
N1705      H1710   1.045       .  S
N1708      H1711   1.045       .  S
N1708      H1712   1.046   1_556  S
