geometry optimzed in LAMMPS
_audit_creation_date              2020-11-30 
_audit_creation_method            'lammps2cif' 
_symmetry_space_group_name_H-M    'P1' 
_symmetry_Int_Tables_number       1 
_symmetry_cell_setting            triclinic 
loop_ 
_symmetry_equiv_pos_as_xyz 
  x,y,z 
_cell_length_a                    46.03961139 
_cell_length_b                    45.61234234350708 
_cell_length_c                    33.008660807795984 
_cell_angle_alpha                 89.41502987264076 
_cell_angle_beta                  90.3883490232383 
_cell_angle_gamma                 119.9299495281857 
loop_ 
_atom_site_label 
_atom_site_type_symbol 
_atom_site_fract_x 
_atom_site_fract_y 
_atom_site_fract_z 
_atom_site_charge 
Fe1        Fe  0.19147917  0.30896437  0.24792039     1.65800
Fe2        Fe  0.11871139  0.31073598  0.24866960     1.73200
Fe3        Fe  0.19275788  0.38390501  0.25489258     1.54400
O4          O  0.22975217  0.38438461  0.29112891    -0.82300
O5          O  0.11769781  0.34050124  0.20257793    -0.80600
O6          O  0.21905993  0.33142497  0.29948009    -0.84800
O7          O  0.22934523  0.34503817  0.21154403    -0.79600
O8          O  0.16678266  0.38315521  0.30654666    -0.81400
O9          O  0.11532061  0.27614792  0.20526347    -0.84100
C10         C  0.23627145  0.37299979  0.19465665     0.96600
C11         C  0.23566803  0.36267299  0.30771908     1.04100
O12         O  0.16764379  0.33449841  0.25052728    -1.13100
O13         O  0.11474683  0.27870215  0.29470026    -0.75600
O14         O  0.15689515  0.26917381  0.28366530    -0.79000
O15         O  0.22071398  0.38854474  0.20367923    -0.79700
C16         C  0.12930093  0.26174704  0.30054769     0.95500
O17         O  0.16634604  0.28402686  0.19602660    -0.77700
O18         O  0.11538465  0.34204831  0.29182597    -0.82900
C19         C  0.13271792  0.37245406  0.20013936     0.98200
C20         C  0.13535001  0.36714626  0.31336599     1.04100
O21         O  0.15958468  0.39115420  0.21934573    -0.78500
C22         C  0.13561862  0.26984782  0.18634648     1.02400
C23         C  0.14036067  0.07069350  0.09865870     0.85900
C24         C  0.11321286  0.03586839  0.11167764    -0.54300
C25         C  0.08619335  0.01994313  0.08574117     0.08800
C26         C  0.08603328  0.04533468  0.05354108     0.19800
C27         C  0.14637602  0.06923176  0.05350293    -0.55100
C28         C  0.11848800  0.05655331  0.02926426     0.08900
C29         C  0.12129325  0.08961118  0.10149270    -0.54600
C30         C  0.09339599  0.07810133  0.07726501     0.09500
H31         H  0.11657504  0.02476444  0.13913373     0.14000
H32         H  0.06276166  0.03464539  0.03534975    -0.00200
H33         H  0.17157879  0.07833436  0.04265541     0.14300
H34         H  0.12847110  0.10895166  0.12400512     0.14100
C35         C  0.43094136  0.35838707  0.40771210     0.85900
C36         C  0.46855403  0.37598643  0.40906402    -0.54300
C37         C  0.48449439  0.40649104  0.42822750     0.08800
C38         C  0.45886134  0.41428482  0.45030501     0.19800
C39         C  0.42241071  0.35302547  0.45283453    -0.55100
C40         C  0.43729576  0.38187663  0.47609343     0.08900
C41         C  0.42369831  0.38548947  0.39249796    -0.54600
C42         C  0.43385002  0.41299714  0.41722730     0.09500
H43         H  0.48079987  0.36193863  0.40136244     0.14000
H44         H  0.47113215  0.43826852  0.46736761    -0.00200
H45         H  0.40709935  0.32766471  0.46450203     0.14300
H46         H  0.40889836  0.38084910  0.36525038     0.14100
C47         C  0.14895708  0.07456090  0.41764567     0.85900
C48         C  0.12827272  0.09115763  0.41041547    -0.54300
C49         C  0.09720192  0.07631265  0.42818149     0.08800
C50         C  0.09032036  0.04485716  0.45410809     0.19800
C51         C  0.15137479  0.07419917  0.46404429    -0.55100
C52         C  0.12073961  0.05886241  0.48378453     0.08900
C53         C  0.12721927  0.03773843  0.40824203    -0.54600
C54         C  0.09616900  0.02118462  0.42581856     0.09500
H55         H  0.14010192  0.11475608  0.39384471     0.14000
H56         H  0.06538737  0.03220039  0.46861111    -0.00200
H57         H  0.17511693  0.08493589  0.47953421     0.14300
H58         H  0.13923807  0.02560514  0.39373140     0.14100
C59         C  0.07725166  0.42768134  0.41878351     0.85900
C60         C  0.08947212  0.46380116  0.40583059    -0.54300
C61         C  0.07461950  0.47986274  0.42459466     0.08800
C62         C  0.04597580  0.45576702  0.45403072     0.19800
C63         C  0.07884887  0.42784806  0.46490846    -0.55100
C64         C  0.06290916  0.44259810  0.48404877     0.08900
C65         C  0.04025896  0.41164854  0.40857612    -0.54600
C66         C  0.02263132  0.42423138  0.42843124     0.09500
H67         H  0.10885851  0.47492668  0.38332885     0.14000
H68         H  0.03279342  0.46761757  0.46839854    -0.00200
H69         H  0.09134872  0.41613297  0.48017593     0.14300
H70         H  0.03003892  0.39355450  0.38435558     0.14100
C71         C  0.06816721  0.42986173  0.09957815     0.85900
C72         C  0.03108595  0.41451440  0.10518608    -0.54300
C73         C  0.01531090  0.42615835  0.07981420     0.08800
C74         C  0.04098274  0.45734297  0.05394407     0.19800
C75         C  0.07468187  0.42969929  0.05435237    -0.55100
C76         C  0.06025423  0.44329115  0.02964576     0.08900
C77         C  0.08140588  0.46683251  0.10745668    -0.54600
C78         C  0.06807674  0.48262026  0.08457703     0.09500
H79         H  0.01894488  0.39511350  0.12811271     0.14000
H80         H  0.02921782  0.46885191  0.03521839    -0.00200
H81         H  0.09023284  0.41983765  0.04379345     0.14300
H82         H  0.10300937  0.47967348  0.12641763     0.14100
C83         C  0.42531882  0.35176269  0.08555095     0.85900
C84         C  0.41214787  0.37478183  0.09664988    -0.54300
C85         C  0.42592847  0.40542270  0.07729472     0.08800
C86         C  0.45457680  0.41050360  0.04770657     0.19800
C87         C  0.42118785  0.34909159  0.03929370    -0.55100
C88         C  0.43673283  0.37962021  0.01874209     0.08900
C89         C  0.46264937  0.37155443  0.09099146    -0.54600
C90         C  0.47921807  0.40292384  0.07287550     0.09500
H91         H  0.39141437  0.36488930  0.11742911     0.14000
H92         H  0.46704148  0.43551694  0.03247014    -0.00200
H93         H  0.40774208  0.32528230  0.02409256     0.14300
H94         H  0.47389558  0.35946852  0.10795115     0.14100
C95         C  0.35586907  0.42707563  0.09104933     0.85900
C96         C  0.37958148  0.46345468  0.10155119    -0.54300
C97         C  0.40815088  0.48014336  0.07890231     0.08800
C98         C  0.41282201  0.45526500  0.05070116     0.19800
C99         C  0.35205039  0.42610075  0.04511435    -0.55100
C100        C  0.38129269  0.43947626  0.02326199     0.08900
C101        C  0.37790781  0.41220863  0.10080643    -0.54600
C102        C  0.40726476  0.42492683  0.07869142     0.09500
H103        H  0.37538065  0.47385445  0.12865988     0.14000
H104        H  0.43691180  0.46723903  0.03416010    -0.00200
H105        H  0.32721620  0.41493157  0.03211131     0.14300
H106        H  0.36960709  0.39309108  0.12415324     0.14100
C107        C  0.06858239  0.14008685  0.40307489     0.85900
C108        C  0.03425314  0.11207842  0.38955868    -0.54300
C109        C  0.01839095  0.08493676  0.41560772     0.08800
C110        C  0.04325487  0.08519649  0.44841353     0.19800
C111        C  0.06499244  0.14577288  0.44790136    -0.55100
C112        C  0.05300360  0.11769575  0.47247232     0.08900
C113        C  0.08761828  0.12159799  0.40083636    -0.54600
C114        C  0.07632875  0.09340524  0.42505141     0.09500
H115        H  0.02299125  0.11322946  0.36116660     0.14000
H116        H  0.03278891  0.06165704  0.46670031    -0.00200
H117        H  0.07270018  0.17099662  0.45841110     0.14300
H118        H  0.10789070  0.13072314  0.37939357     0.14100
C119        C  0.42901093  0.07508576  0.41657145     0.85900
C120        C  0.41135831  0.03757514  0.40797107    -0.54300
C121        C  0.42329918  0.01915326  0.42787907     0.08800
C122        C  0.45480831  0.04198422  0.45410844     0.19800
C123        C  0.43046360  0.07866051  0.46219585    -0.55100
C124        C  0.44291925  0.06095305  0.48289310     0.08900
C125        C  0.46548773  0.08760765  0.40727787    -0.54600
C126        C  0.47975301  0.07027608  0.42465808     0.09500
H127        H  0.39047636  0.02742756  0.38716486     0.14000
H128        H  0.46572641  0.02815868  0.46978562    -0.00200
H129        H  0.42563472  0.09699768  0.47597951     0.14300
H130        H  0.48010722  0.11236386  0.39358202     0.14100
C131        C  0.35592873  0.42358082  0.40977615     0.85900
C132        C  0.38015599  0.41163701  0.40083599    -0.54300
C133        C  0.41010415  0.42701831  0.42131498     0.08800
C134        C  0.41223272  0.45463780  0.45113750     0.19800
C135        C  0.35121540  0.41945166  0.45580657    -0.55100
C136        C  0.38030121  0.43594905  0.47824727     0.08900
C137        C  0.37495533  0.46154407  0.40438418    -0.54600
C138        C  0.40473228  0.47888039  0.42515497     0.09500
H139        H  0.37187808  0.39077483  0.38017607     0.14000
H140        H  0.43616809  0.46775266  0.46800109    -0.00200
H141        H  0.32667757  0.40642627  0.46919864     0.14300
H142        H  0.36328127  0.47271602  0.38652908     0.14100
C143        C  0.42593188  0.07063438  0.09007854     0.85900
C144        C  0.46236609  0.08497759  0.10102001    -0.54300
C145        C  0.47968518  0.07277554  0.08002133     0.08800
C146        C  0.45622621  0.04328613  0.05117049     0.19800
C147        C  0.42579653  0.07428865  0.04377335    -0.55100
C148        C  0.44126627  0.05978030  0.02266468     0.08900
C149        C  0.40980559  0.03313848  0.09502225    -0.54600
C150        C  0.42543645  0.01767209  0.07717368     0.09500
H151        H  0.47306008  0.10533359  0.12255875     0.14000
H152        H  0.46887873  0.03143597  0.03546692    -0.00200
H153        H  0.41221482  0.08507749  0.02934716     0.14300
H154        H  0.38479973  0.02006838  0.10735711     0.14100
C155        C  0.07231805  0.15039977  0.08261241     0.85900
C156        C  0.09045756  0.13066935  0.09001832    -0.54300
C157        C  0.07615337  0.09891461  0.07321627     0.08800
C158        C  0.04346684  0.09005789  0.04929471     0.19800
C159        C  0.06898216  0.15082328  0.03681522    -0.55100
C160        C  0.05456645  0.11973481  0.01849639     0.08900
C161        C  0.03764212  0.12594522  0.09886684    -0.54600
C162        C  0.02069821  0.09505522  0.07996971     0.09500
H163        H  0.11305205  0.14187011  0.10773683     0.14000
H164        H  0.03128665  0.06462192  0.03562256    -0.00200
H165        H  0.07906845  0.17477124  0.02095735     0.14300
H166        H  0.02788568  0.13384203  0.12333787     0.14100
Fe167      Fe  0.38206958  0.19119173  0.24710661     1.65800
Fe168      Fe  0.30841903  0.11684699  0.25345950     1.73200
Fe169      Fe  0.30860331  0.19155903  0.25456258     1.54400
O170        O  0.34372878  0.22972828  0.29037058    -0.82300
O171        O  0.27735619  0.11406653  0.20607904    -0.80600
O172        O  0.38807718  0.22282150  0.29465331    -0.84800
O173        O  0.38259910  0.22545758  0.20583648    -0.79600
O174        O  0.28383592  0.16666453  0.30679471    -0.81400
O175        O  0.33906243  0.11157355  0.21180363    -0.84100
C176        C  0.36146047  0.23257288  0.19073407     0.96600
C177        C  0.37242639  0.23794974  0.30450524     1.04100
O178        O  0.33311371  0.16657182  0.25165933    -1.13100
O179        O  0.33739261  0.11519371  0.30095165    -0.75600
O180        O  0.38740726  0.16009321  0.28825819    -0.79000
O181        O  0.33131776  0.21925463  0.20271341    -0.79700
C182        C  0.36880771  0.13274427  0.30721367     0.95500
O183        O  0.38232671  0.16264916  0.19878086    -0.77700
O184        O  0.27385927  0.11441077  0.29520844    -0.82900
C185        C  0.26187214  0.13033211  0.20012157     0.98200
C186        C  0.26847805  0.13521510  0.31445882     1.04100
O187        O  0.26947247  0.15718021  0.21917445    -0.78500
C188        C  0.36549513  0.13112819  0.19215451     1.02400
C189        C  0.38332339  0.08960768  0.17956126    -0.06400
C190        C  0.37896546  0.11566809  0.16385796    -0.00400
C191        C  0.38919530  0.12693759  0.12369856    -0.09000
C192        C  0.40374238  0.11160503  0.10071573    -0.06400
C193        C  0.40918507  0.08582967  0.11674831    -0.00400
C194        C  0.40054965  0.07634475  0.15857447    -0.08900
C195        C  0.40782399  0.05199875  0.18304901     0.61500
H196        H  0.37428912  0.08047917  0.20991342     0.12200
H197        H  0.41228028  0.12114637  0.07056359     0.12200
C198        C  0.38362351  0.15414815  0.10477110     0.61700
F199        F  0.41138014  0.06000101  0.22383808    -0.23500
F200        F  0.43715488  0.05320362  0.17171435    -0.20800
F201        F  0.38136799  0.01935720  0.17929311    -0.20500
F202        F  0.40387092  0.18472378  0.12354359    -0.20500
F203        F  0.35039960  0.14535508  0.10924146    -0.20900
F204        F  0.39096198  0.15824913  0.06378503    -0.23500
C205        C  0.36866366  0.10488070  0.37259953    -0.06400
C206        C  0.38500079  0.12024574  0.33624083    -0.00400
C207        C  0.41539481  0.12126704  0.32668136    -0.09000
C208        C  0.42762074  0.10597274  0.35331523    -0.06400
C209        C  0.41321870  0.09264209  0.39160004    -0.00400
C210        C  0.38196244  0.09099342  0.40073617    -0.08900
C211        C  0.36182344  0.07496517  0.43922350     0.61500
H212        H  0.34534545  0.10430106  0.37903610     0.12200
H213        H  0.44837400  0.10348825  0.34287223     0.12200
C214        C  0.43504658  0.13783777  0.28810981     0.61700
F215        F  0.32926449  0.06881223  0.43565817    -0.23500
F216        F  0.37621387  0.09660393  0.47149747    -0.20800
F217        F  0.35980109  0.04427725  0.44762495    -0.20500
F218        F  0.44916683  0.17256786  0.29065468    -0.20500
F219        F  0.41424791  0.12627440  0.25481865    -0.20900
F220        F  0.46066917  0.13086964  0.28174232    -0.23500
C221        C  0.39222558  0.29268266  0.17935644    -0.06400
C222        C  0.37436405  0.26090068  0.16191065    -0.00400
C223        C  0.37325799  0.25781273  0.11940296    -0.09000
C224        C  0.39063026  0.28736620  0.09566649    -0.06400
C225        C  0.40906342  0.31997793  0.11289033    -0.00400
C226        C  0.41030254  0.32228376  0.15647781    -0.08900
C227        C  0.42909862  0.35394142  0.18275446     0.61500
H228        H  0.39259192  0.29433954  0.21217031     0.12200
H229        H  0.38936050  0.28401795  0.06338067     0.12200
C230        C  0.35431529  0.22437657  0.09740403     0.61700
F231        F  0.40599246  0.35768066  0.20542993    -0.23500
F232        F  0.44861009  0.38400906  0.16268678    -0.20800
F233        F  0.45006232  0.34938630  0.20911679    -0.20500
F234        F  0.33113800  0.22545232  0.07145870    -0.20500
F235        F  0.33735967  0.19705013  0.12325024    -0.20900
F236        F  0.37662701  0.21935749  0.07480749    -0.23500
C237        C  0.21239117  0.11311480  0.40768892    -0.06400
C238        C  0.18060593  0.09099595  0.39055990    -0.00400
C239        C  0.17873217  0.08641459  0.34716824    -0.09000
C240        C  0.20866990  0.10001952  0.32518094    -0.06400
C241        C  0.23978511  0.12120628  0.34257505    -0.00400
C242        C  0.24190450  0.12912976  0.38406131    -0.08900
C243        C  0.27516654  0.15426593  0.40301921     0.61500
H244        H  0.21421857  0.11916677  0.43938308     0.12200
H245        H  0.20799898  0.09488891  0.29307611     0.12200
C246        C  0.14643957  0.06710033  0.32202886     0.61700
F247        F  0.27229482  0.15754988  0.44422452    -0.23500
F248        F  0.28689297  0.18573052  0.38516367    -0.20800
F249        F  0.29828819  0.14375748  0.39722996    -0.20500
F250        F  0.15216559  0.07625581  0.28145137    -0.20500
F251        F  0.12179609  0.07385762  0.33397139    -0.20900
F252        F  0.13444084  0.03270045  0.32417728    -0.23500
C253        C  0.36778572  0.27152049  0.36005373    -0.06400
C254        C  0.38831093  0.26723922  0.33229184    -0.00400
C255        C  0.42198068  0.29325894  0.32762713    -0.09000
C256        C  0.43364587  0.32254966  0.35093978    -0.06400
C257        C  0.41408533  0.32634959  0.38112170    -0.00400
C258        C  0.37940802  0.30098867  0.38345980    -0.08900
C259        C  0.35280155  0.30306400  0.40855675     0.61500
H260        H  0.34172567  0.25184696  0.36246789     0.12200
H261        H  0.45831249  0.34327382  0.34423493     0.12200
C262        C  0.44559907  0.29087841  0.29744332     0.61700
F263        F  0.32424593  0.29290814  0.38530992    -0.23500
F264        F  0.36224848  0.33508052  0.42202397    -0.20800
F265        F  0.34459146  0.28147788  0.44157675    -0.20500
F266        F  0.43191104  0.28521949  0.25899241    -0.20500
F267        F  0.45103004  0.26468120  0.30851371    -0.20900
F268        F  0.47654225  0.32018009  0.29593196    -0.23500
C269        C  0.21745130  0.08243382  0.16113658    -0.06400
C270        C  0.23300108  0.11681761  0.17117804    -0.00400
C271        C  0.22067987  0.13696203  0.15307959    -0.09000
C272        C  0.19137346  0.12095763  0.12937261    -0.06400
C273        C  0.17366336  0.08574349  0.12261151    -0.00400
C274        C  0.18968792  0.06708758  0.13487934    -0.08900
C275        C  0.18020190  0.03170184  0.12094683     0.61500
H276        H  0.22765444  0.06724721  0.17320211     0.12200
H277        H  0.18248552  0.13644981  0.11521892     0.12200
C278        C  0.23832228  0.17528147  0.15750154     0.61700
F279        F  0.16059471  0.02173954  0.08654563    -0.23500
F280        F  0.16383696  0.00885006  0.15202832    -0.20800
F281        F  0.20895334  0.03064784  0.11162837    -0.20500
F282        F  0.27188066  0.18929047  0.14792154    -0.20500
F283        F  0.23505062  0.18362454  0.19670658    -0.20900
F284        F  0.22500865  0.18984903  0.13192815    -0.23500
C285        C  0.10123128  0.37176160  0.13918494    -0.06400
C286        C  0.11731112  0.38809112  0.17506787    -0.00400
C287        C  0.11355900  0.41525368  0.18915418    -0.09000
C288        C  0.09615530  0.42672059  0.16475485    -0.06400
C289        C  0.08265494  0.41253425  0.12660520    -0.00400
C290        C  0.08186864  0.38180996  0.11623987    -0.08900
C291        C  0.06001311  0.35709221  0.08360040     0.61500
H292        H  0.10227606  0.34951687  0.13007030     0.12200
H293        H  0.09207304  0.44635383  0.17646785     0.12200
C294        C  0.12609429  0.43103665  0.23063115     0.61700
F295        F  0.04362094  0.32467241  0.09980735    -0.23500
F296        F  0.08003348  0.35793162  0.05206654    -0.20800
F297        F  0.03549960  0.36313087  0.06846556    -0.20500
F298        F  0.16070082  0.44736138  0.23197214    -0.20500
F299        F  0.11292417  0.40612227  0.26018815    -0.20900
F300        F  0.11659172  0.45463260  0.23971900    -0.23500
C301        C  0.27264338  0.36487481  0.14594253    -0.06400
C302        C  0.26387429  0.38730012  0.16381645    -0.00400
C303        C  0.28250587  0.42209048  0.15283997    -0.09000
C304        C  0.31013442  0.43289808  0.12673210    -0.06400
C305        C  0.32159554  0.41115016  0.11301272    -0.00400
C306        C  0.30000329  0.37570535  0.11937093    -0.08900
C307        C  0.30351686  0.34767787  0.09937448     0.61500
H308        H  0.25756990  0.33804093  0.15249926     0.12200
H309        H  0.32319323  0.45903482  0.11703118     0.12200
C310        C  0.27466266  0.44837622  0.16947102     0.61700
F311        F  0.27254974  0.32318463  0.08500272    -0.23500
F312        F  0.31448123  0.33287806  0.12781821    -0.20800
F313        F  0.32503351  0.35844851  0.06676296    -0.20500
F314        F  0.27603647  0.44827916  0.21134993    -0.20500
F315        F  0.24313679  0.44132150  0.15683724    -0.20900
F316        F  0.29733198  0.48081718  0.15630679    -0.23500
C317        C  0.14197840  0.41230877  0.36130754    -0.06400
C318        C  0.12139056  0.37951939  0.34600281    -0.00400
C319        C  0.08831054  0.36023591  0.36191524    -0.09000
C320        C  0.07638408  0.37601911  0.38830623    -0.06400
C321        C  0.09544495  0.41050157  0.39880248    -0.00400
C322        C  0.13032314  0.42738748  0.38914511    -0.08900
C323        C  0.15692500  0.46046097  0.40771164     0.61500
H324        H  0.16787614  0.42661302  0.35158841     0.12200
H325        H  0.05131864  0.36131580  0.40029137     0.12200
C326        C  0.06504525  0.32326199  0.35129793     0.61700
F327        F  0.18374357  0.45695132  0.42048274    -0.23500
F328        F  0.14580081  0.46993958  0.44111328    -0.20800
F329        F  0.16826858  0.48597362  0.37883160    -0.20500
F330        F  0.08143828  0.30507528  0.35708352    -0.20500
F331        F  0.05463657  0.32070211  0.31144144    -0.20900
F332        F  0.03659618  0.30843960  0.37527630    -0.23500
C333        C  0.29436640  0.37917950  0.39744716    -0.06400
C334        C  0.32484968  0.40594443  0.38195645    -0.00400
C335        C  0.32573923  0.41439260  0.33972933    -0.09000
C336        C  0.29547784  0.40070624  0.31824574    -0.06400
C337        C  0.26527279  0.37548136  0.33449303    -0.00400
C338        C  0.26471658  0.36332518  0.37409609    -0.08900
C339        C  0.23295696  0.33401276  0.39159063     0.61500
H340        H  0.29377632  0.36941628  0.42744832     0.12200
H341        H  0.29570540  0.40869829  0.28708092     0.12200
C342        C  0.35670721  0.43688576  0.31406261     0.61700
F343        F  0.23685634  0.32792119  0.43186994    -0.23500
F344        F  0.22449323  0.30493684  0.37013095    -0.20800
F345        F  0.20700033  0.34098267  0.38901096    -0.20500
F346        F  0.38696332  0.44546121  0.33196622    -0.20500
F347        F  0.35660082  0.46630209  0.30374917    -0.20900
F348        F  0.35525550  0.42006269  0.27873938    -0.23500
C349        C  0.12460239  0.20396447  0.10641013    -0.06400
C350        C  0.08948344  0.18638088  0.10130429    -0.00400
C351        C  0.07205702  0.20300228  0.11482599    -0.09000
C352        C  0.08812852  0.22992413  0.14230438    -0.06400
C353        C  0.12214925  0.24395176  0.15303688    -0.00400
C354        C  0.14137764  0.23217949  0.13212511    -0.08900
C355        C  0.17921371  0.24832789  0.13685831     0.61500
H356        H  0.13905500  0.19492529  0.09065200     0.12200
H357        H  0.07370006  0.24047211  0.15499817     0.12200
C358        C  0.03758018  0.19534331  0.10016672     0.61700
F359        F  0.19254784  0.23433347  0.11107399    -0.23500
F360        F  0.18705733  0.24365271  0.17603651    -0.20800
F361        F  0.19446084  0.28251839  0.12783704    -0.20500
F362        F  0.01474900  0.18117454  0.13147035    -0.20500
F363        F  0.02620793  0.17412592  0.06718289    -0.20900
F364        F  0.03900778  0.22523912  0.08830699    -0.23500
C365        C  0.13335633  0.22626893  0.35481849    -0.06400
C366        C  0.11317902  0.23185069  0.32766411    -0.00400
C367        C  0.07829585  0.20872797  0.32655805    -0.09000
C368        C  0.06493124  0.18076868  0.35299123    -0.06400
C369        C  0.08511745  0.17365063  0.37896226    -0.00400
C370        C  0.12010652  0.19855670  0.38180664    -0.08900
C371        C  0.14555723  0.19843868  0.41166125     0.61500
H372        H  0.15998135  0.24448624  0.35567937     0.12200
H373        H  0.03811151  0.16482334  0.35375431     0.12200
C374        C  0.05515981  0.21235648  0.29631166     0.61700
F375        F  0.16767242  0.19192105  0.39084056    -0.23500
F376        F  0.13193432  0.17544402  0.44299512    -0.20800
F377        F  0.16355016  0.23005090  0.42918755    -0.20500
F378        F  0.06796109  0.21631131  0.25756619    -0.20500
F379        F  0.05177833  0.23992243  0.30594071    -0.20900
F380        F  0.02349381  0.18416052  0.29624343    -0.23500
Fe381      Fe  0.18868133  0.30630409  0.74925997     1.65800
Fe382      Fe  0.11625299  0.30896376  0.75066822     1.73200
Fe383      Fe  0.19082272  0.38162109  0.75500387     1.54400
O384        O  0.22853338  0.38239708  0.79042179    -0.82300
O385        O  0.11510258  0.33816532  0.70408791    -0.80600
O386        O  0.21706893  0.32929477  0.80042907    -0.84800
O387        O  0.22674278  0.34184654  0.71237233    -0.79600
O388        O  0.16591474  0.38193576  0.80713443    -0.81400
O389        O  0.11215727  0.27395668  0.70766199    -0.84100
C390        C  0.23344353  0.36955357  0.69491609     0.96600
C391        C  0.23432183  0.36077271  0.80751601     1.04100
O392        O  0.16523012  0.33222020  0.75181337    -1.13100
O393        O  0.11201601  0.27709136  0.79695771    -0.75600
O394        O  0.15376687  0.26707848  0.78539256    -0.79000
O395        O  0.21746252  0.38480199  0.70321094    -0.79700
C396        C  0.12627597  0.25984156  0.80250620     0.95500
O397        O  0.16283951  0.28097461  0.69778488    -0.77700
O398        O  0.11400088  0.34114260  0.79353900    -0.82900
C399        C  0.13023232  0.37004566  0.70120381     0.98200
C400        C  0.13457131  0.36636645  0.81455560     1.04100
O401        O  0.15725610  0.38890120  0.72007321    -0.78500
C402        C  0.13207347  0.26738178  0.68832554     1.02400
C403        C  0.13888816  0.07136512  0.59878487     0.85900
C404        C  0.11178891  0.03644781  0.61144973    -0.54300
C405        C  0.08513018  0.02040854  0.58515987     0.08800
C406        C  0.08507505  0.04586708  0.55283914     0.19800
C407        C  0.14550100  0.07034302  0.55369816    -0.55100
C408        C  0.11792204  0.05776167  0.52902533     0.08900
C409        C  0.11960963  0.09011267  0.60127864    -0.54600
C410        C  0.09191683  0.07846526  0.57659573     0.09500
H411        H  0.11484957  0.02536875  0.63912703     0.14000
H412        H  0.06197086  0.03506706  0.53433765    -0.00200
H413        H  0.17085908  0.07992952  0.54309254     0.14300
H414        H  0.12661365  0.10957826  0.62359063     0.14100
C415        C  0.43065133  0.35895307  0.90408806     0.85900
C416        C  0.46827393  0.37645016  0.90489093    -0.54300
C417        C  0.48450273  0.40628510  0.92549500     0.08800
C418        C  0.45901243  0.41411059  0.94797139     0.19800
C419        C  0.42246271  0.35294780  0.94942360    -0.55100
C420        C  0.43762869  0.38146752  0.97323647     0.08900
C421        C  0.42344375  0.38633544  0.88997538    -0.54600
C422        C  0.43374454  0.41341546  0.91541109     0.09500
H423        H  0.48010775  0.36250578  0.89548588     0.14000
H424        H  0.47146098  0.43784421  0.96547728    -0.00200
H425        H  0.40708199  0.32747444  0.96082438     0.14300
H426        H  0.40838828  0.38216595  0.86303268     0.14100
C427        C  0.14851384  0.07247964  0.91770772     0.85900
C428        C  0.12811616  0.08953590  0.91159475    -0.54300
C429        C  0.09695191  0.07442545  0.92913281     0.08800
C430        C  0.09000721  0.04280796  0.95458985     0.19800
C431        C  0.15109456  0.07162611  0.96401189    -0.55100
C432        C  0.12064608  0.05655574  0.98401180     0.08900
C433        C  0.12644655  0.03583699  0.90778495    -0.54600
C434        C  0.09542411  0.01934536  0.92548038     0.09500
H435        H  0.14029997  0.11393646  0.89671610     0.14000
H436        H  0.06516432  0.03018948  0.96934912    -0.00200
H437        H  0.17475709  0.08244985  0.97950370     0.14300
H438        H  0.13803068  0.02377063  0.89206960     0.14100
C439        C  0.07769371  0.42842173  0.91913131     0.85900
C440        C  0.08989590  0.46449425  0.90600417    -0.54300
C441        C  0.07509374  0.48062810  0.92466805     0.08800
C442        C  0.04639131  0.45657068  0.95414504     0.19800
C443        C  0.07928563  0.42869688  0.96526945    -0.55100
C444        C  0.06311797  0.44325156  0.98430641     0.08900
C445        C  0.04068844  0.41232361  0.90890182    -0.54600
C446        C  0.02305323  0.42501630  0.92862809     0.09500
H447        H  0.10918497  0.47550876  0.88337160     0.14000
H448        H  0.03319830  0.46845314  0.96840151    -0.00200
H449        H  0.09195301  0.41719777  0.98062568     0.14300
H450        H  0.03043269  0.39381649  0.88509498     0.14100
C451        C  0.06771810  0.42829624  0.59894197     0.85900
C452        C  0.03046905  0.41200514  0.60340541    -0.54300
C453        C  0.01475364  0.42408767  0.57857511     0.08800
C454        C  0.04048820  0.45602586  0.55387579     0.19800
C455        C  0.07536381  0.42976024  0.55386151    -0.55100
C456        C  0.06046159  0.44293613  0.52938584     0.08900
C457        C  0.07994250  0.46482786  0.60852529    -0.54600
C458        C  0.06690382  0.48087456  0.58548848     0.09500
H459        H  0.01838128  0.39197352  0.62558826     0.14000
H460        H  0.02868479  0.46759992  0.53533638    -0.00200
H461        H  0.09219858  0.42157153  0.54315529     0.14300
H462        H  0.10045638  0.47709126  0.62931758     0.14100
C463        C  0.42418529  0.35266391  0.58853592     0.85900
C464        C  0.41120191  0.37580074  0.59960267    -0.54300
C465        C  0.42495628  0.40634462  0.58002064     0.08800
C466        C  0.45353437  0.41132760  0.55035276     0.19800
C467        C  0.41995718  0.34999604  0.54231977    -0.55100
C468        C  0.43575951  0.38039741  0.52158309     0.08900
C469        C  0.46155382  0.37248175  0.59395126    -0.54600
C470        C  0.47813355  0.40381106  0.57552119     0.09500
H471        H  0.39026970  0.36585443  0.62005413     0.14000
H472        H  0.46600665  0.43626029  0.53489962    -0.00200
H473        H  0.40603565  0.32622226  0.52727192     0.14300
H474        H  0.47281859  0.36036950  0.61084103     0.14100
C475        C  0.35354827  0.42604582  0.59125961     0.85900
C476        C  0.37633696  0.46293632  0.60052304    -0.54300
C477        C  0.40527927  0.47965681  0.57837475     0.08800
C478        C  0.41083794  0.45478203  0.55150447     0.19800
C479        C  0.35005456  0.42389089  0.54520035    -0.55100
C480        C  0.37956656  0.43792150  0.52374138     0.08900
C481        C  0.37647472  0.41257028  0.60257326    -0.54600
C482        C  0.40589404  0.42539181  0.58064210     0.09500
H483        H  0.37151362  0.47348570  0.62700063     0.14000
H484        H  0.43508589  0.46697308  0.53532987    -0.00200
H485        H  0.32532379  0.41148030  0.53179948     0.14300
H486        H  0.36876830  0.39430971  0.62687828     0.14100
C487        C  0.06795812  0.13752248  0.90319697     0.85900
C488        C  0.03351412  0.10949420  0.89049721    -0.54300
C489        C  0.01795149  0.08299539  0.91744023     0.08800
C490        C  0.04331103  0.08355370  0.94984301     0.19800
C491        C  0.06522240  0.14402550  0.94798519    -0.55100
C492        C  0.05374844  0.11647180  0.97322640     0.08900
C493        C  0.08674131  0.11880332  0.90067259    -0.54600
C494        C  0.07591445  0.09123148  0.92580214     0.09500
H495        H  0.02160508  0.11079013  0.86265470     0.14000
H496        H  0.03307669  0.06030435  0.96865830    -0.00200
H497        H  0.07310119  0.16943148  0.95794731     0.14300
H498        H  0.10622973  0.12689689  0.87822406     0.14100
C499        C  0.42908192  0.07135902  0.90878100     0.85900
C500        C  0.41408862  0.03429721  0.89972793    -0.54300
C501        C  0.42546147  0.01692509  0.92264185     0.08800
C502        C  0.45560262  0.04094233  0.95030021     0.19800
C503        C  0.42778246  0.07468847  0.95440254    -0.55100
C504        C  0.44115763  0.05880274  0.97710524     0.08900
C505        C  0.46622635  0.08587708  0.90211342    -0.54600
C506        C  0.48103306  0.06982228  0.92152867     0.09500
H507        H  0.39491152  0.02341977  0.87669574     0.14000
H508        H  0.46674316  0.02799788  0.96746998    -0.00200
H509        H  0.41767116  0.08959875  0.96660757     0.14300
H510        H  0.48037936  0.11054261  0.88819787     0.14100
C511        C  0.35555006  0.42428257  0.90972825     0.85900
C512        C  0.37941024  0.41170609  0.90083805    -0.54300
C513        C  0.40988377  0.42736452  0.92037443     0.08800
C514        C  0.41266984  0.45545450  0.94995521     0.19800
C515        C  0.35188541  0.42056927  0.95604043    -0.55100
C516        C  0.38130553  0.43734539  0.97773024     0.08900
C517        C  0.37512868  0.46230453  0.90339436    -0.54600
C518        C  0.40491759  0.47962623  0.92428823     0.09500
H519        H  0.37055930  0.39025078  0.88099998     0.14000
H520        H  0.43682736  0.46851374  0.96636691    -0.00200
H521        H  0.32816068  0.40630408  0.97073396     0.14300
H522        H  0.36417356  0.47361617  0.88438162     0.14100
C523        C  0.43038124  0.07149274  0.59675673     0.85900
C524        C  0.46651576  0.08398129  0.60770205    -0.54300
C525        C  0.48301623  0.07181252  0.58484637     0.08800
C526        C  0.45862862  0.04338815  0.55522968     0.19800
C527        C  0.43005474  0.07615574  0.55076810    -0.55100
C528        C  0.44454199  0.06150416  0.52831652     0.08900
C529        C  0.41303895  0.03379552  0.60050783    -0.54600
C530        C  0.42739083  0.01777786  0.58080943     0.09500
H531        H  0.47777639  0.10332628  0.63045214     0.14000
H532        H  0.47041984  0.03121390  0.53833251    -0.00200
H533        H  0.41616220  0.08712500  0.53754410     0.14300
H534        H  0.38853905  0.02137473  0.61419498     0.14100
C535        C  0.06906941  0.14942343  0.58276011     0.85900
C536        C  0.08812611  0.13056856  0.58940115    -0.54300
C537        C  0.07441690  0.09900033  0.57213306     0.08800
C538        C  0.04170939  0.08980886  0.54787688     0.19800
C539        C  0.06584833  0.15060137  0.53700072    -0.55100
C540        C  0.05253050  0.11995772  0.51781791     0.08900
C541        C  0.03470271  0.12392692  0.59874428    -0.54600
C542        C  0.01826246  0.09360887  0.57867589     0.09500
H543        H  0.11088868  0.14231263  0.60689717     0.14000
H544        H  0.03009799  0.06460211  0.53364691    -0.00200
H545        H  0.07537110  0.17476264  0.52179242     0.14300
H546        H  0.02488456  0.13037158  0.62445989     0.14100
Fe547      Fe  0.38056892  0.19040470  0.74598446     1.65800
Fe548      Fe  0.30719000  0.11593047  0.75178981     1.73200
Fe549      Fe  0.30704082  0.19029944  0.75492072     1.54400
O550        O  0.34278541  0.22879811  0.78951950    -0.82300
O551        O  0.27638335  0.11398751  0.70450907    -0.80600
O552        O  0.38690415  0.22153557  0.79427779    -0.84800
O553        O  0.38045505  0.22519954  0.70592572    -0.79600
O554        O  0.28349047  0.16529629  0.80755553    -0.81400
O555        O  0.33828884  0.11101767  0.71050309    -0.84100
C556        C  0.35899526  0.23205623  0.69119154     0.96600
C557        C  0.37153341  0.23710640  0.80347597     1.04100
O558        O  0.33172347  0.16558510  0.75089822    -1.13100
O559        O  0.33626902  0.11384528  0.79882737    -0.75600
O560        O  0.38633381  0.15850989  0.78554138    -0.79000
O561        O  0.32872107  0.21791463  0.70283939    -0.79700
C562        C  0.36789696  0.13084122  0.80401617     0.95500
O563        O  0.38061929  0.16247857  0.69707665    -0.77700
O564        O  0.27231175  0.11298884  0.79344191    -0.82900
C565        C  0.26016952  0.12971332  0.70024885     0.98200
C566        C  0.26744996  0.13363726  0.81379628     1.04100
O567        O  0.26720574  0.15578585  0.72063340    -0.78500
C568        C  0.36483417  0.13083625  0.69120034     1.02400
C569        C  0.38152655  0.08801138  0.68037171    -0.06400
C570        C  0.37990138  0.11579732  0.66460542    -0.00400
C571        C  0.39600832  0.13025706  0.62738088    -0.09000
C572        C  0.41263855  0.11580485  0.60703033    -0.06400
C573        C  0.41437194  0.08774812  0.62276959    -0.00400
C574        C  0.40113042  0.07596365  0.66254278    -0.08900
C575        C  0.40760390  0.05211990  0.68899906     0.61500
H576        H  0.36971416  0.07745271  0.70932234     0.12200
H577        H  0.42552864  0.12750448  0.57916367     0.12200
C578        C  0.39470548  0.16002966  0.60839880     0.61700
F579        F  0.41333758  0.06336204  0.72864057    -0.23500
F580        F  0.43538955  0.05032494  0.67744434    -0.20800
F581        F  0.37975059  0.02007067  0.68852027    -0.20500
F582        F  0.41403907  0.18893104  0.63067065    -0.20500
F583        F  0.36190570  0.15329027  0.60739709    -0.20900
F584        F  0.40668802  0.16627764  0.56905791    -0.23500
C585        C  0.36687904  0.09839223  0.86545762    -0.06400
C586        C  0.38433211  0.11729351  0.83125507    -0.00400
C587        C  0.41553101  0.11992960  0.82148241    -0.09000
C588        C  0.42807986  0.10404248  0.84683308    -0.06400
C589        C  0.41200765  0.08686826  0.88289855    -0.00400
C590        C  0.37917220  0.08176287  0.89052001    -0.08900
C591        C  0.35504976  0.05882799  0.92325648     0.61500
H592        H  0.34260446  0.09569511  0.87201481     0.12200
H593        H  0.45032909  0.10405847  0.83704230     0.12200
C594        C  0.43561731  0.13860769  0.78392562     0.61700
F595        F  0.32315059  0.04029614  0.90703965    -0.23500
F596        F  0.35414061  0.07858970  0.95415423    -0.20800
F597        F  0.36281797  0.03561356  0.93939405    -0.20500
F598        F  0.44828373  0.17300009  0.78820966    -0.20500
F599        F  0.41548534  0.12746618  0.75004888    -0.20900
F600        F  0.46238694  0.13343984  0.77724958    -0.23500
C601        C  0.38818389  0.29243586  0.68121371    -0.06400
C602        C  0.37154038  0.26081385  0.66309388    -0.00400
C603        C  0.37177829  0.25828516  0.62064062    -0.09000
C604        C  0.38997553  0.28810718  0.59765836    -0.06400
C605        C  0.40756855  0.32056699  0.61549616    -0.00400
C606        C  0.40711504  0.32234665  0.65907227    -0.08900
C607        C  0.42423208  0.35396128  0.68564785     0.61500
H608        H  0.38712309  0.29365060  0.71397384     0.12200
H609        H  0.39007507  0.28499596  0.56544654     0.12200
C610        C  0.35307347  0.22518235  0.59787417     0.61700
F611        F  0.44110090  0.34846358  0.71704349    -0.23500
F612        F  0.39985661  0.35948360  0.70219676    -0.20800
F613        F  0.44730170  0.38328275  0.66656176    -0.20500
F614        F  0.33059726  0.22696032  0.57133228    -0.20500
F615        F  0.33532921  0.19747559  0.62297295    -0.20900
F616        F  0.37566532  0.22018862  0.57586291    -0.23500
C617        C  0.21236825  0.10673877  0.90776555    -0.06400
C618        C  0.17996726  0.08884892  0.89024414    -0.00400
C619        C  0.17751314  0.08747254  0.84645924    -0.09000
C620        C  0.20725823  0.10237630  0.82383421    -0.06400
C621        C  0.23879063  0.11947844  0.84175693    -0.00400
C622        C  0.24178245  0.12233096  0.88413410    -0.08900
C623        C  0.27601578  0.14158775  0.90397173     0.61500
H624        H  0.21517236  0.10942380  0.94005758     0.12200
H625        H  0.20637952  0.10093608  0.79106409     0.12200
C626        C  0.14469354  0.07038804  0.82169532     0.61700
F627        F  0.27393947  0.13996751  0.94583042    -0.23500
F628        F  0.29137283  0.17524205  0.89232164    -0.20800
F629        F  0.29567159  0.12813038  0.89206639    -0.20500
F630        F  0.12326468  0.08183840  0.83250836    -0.20500
F631        F  0.12859799  0.03567048  0.82584825    -0.20900
F632        F  0.15046339  0.07714730  0.78060599    -0.23500
C633        C  0.36729692  0.27176841  0.85766227    -0.06400
C634        C  0.38765974  0.26705140  0.83013845    -0.00400
C635        C  0.42094990  0.29344024  0.82395748    -0.09000
C636        C  0.43266728  0.32322068  0.84641644    -0.06400
C637        C  0.41349771  0.32713747  0.87709335    -0.00400
C638        C  0.37891488  0.30170909  0.88003213    -0.08900
C639        C  0.35210213  0.30418350  0.90410534     0.61500
H640        H  0.34128245  0.25206226  0.86065928     0.12200
H641        H  0.45704073  0.34409378  0.83884515     0.12200
C642        C  0.44404151  0.29079128  0.79318476     0.61700
F643        F  0.32521313  0.29687715  0.87887564    -0.23500
F644        F  0.36231132  0.33557717  0.92017533    -0.20800
F645        F  0.34110638  0.28060422  0.93527422    -0.20500
F646        F  0.42918718  0.28348963  0.75534576    -0.20500
F647        F  0.45063214  0.26550614  0.80495886    -0.20900
F648        F  0.47446654  0.32053220  0.78979151    -0.23500
C649        C  0.21506125  0.08206453  0.66214009    -0.06400
C650        C  0.23108757  0.11647021  0.67182485    -0.00400
C651        C  0.21918708  0.13695238  0.65370440    -0.09000
C652        C  0.18966962  0.12123945  0.63034780    -0.06400
C653        C  0.17183549  0.08608672  0.62327816    -0.00400
C654        C  0.18754942  0.06712340  0.63557868    -0.08900
C655        C  0.17822384  0.03191539  0.62117488     0.61500
H656        H  0.22493242  0.06663635  0.67439186     0.12200
H657        H  0.18091340  0.13693209  0.61643247     0.12200
C658        C  0.23781973  0.17534679  0.65725959     0.61700
F659        F  0.15909950  0.02238694  0.58637905    -0.23500
F660        F  0.16152995  0.00874702  0.65185588    -0.20800
F661        F  0.20708411  0.03095548  0.61224013    -0.20500
F662        F  0.27119095  0.18821695  0.64752306    -0.20500
F663        F  0.23516884  0.18461819  0.69620773    -0.20900
F664        F  0.22510205  0.19017745  0.63117099    -0.23500
C665        C  0.10285322  0.37165354  0.63759296    -0.06400
C666        C  0.11488563  0.38545742  0.67586529    -0.00400
C667        C  0.10721220  0.40957615  0.69145039    -0.09000
C668        C  0.09129327  0.42200539  0.66591254    -0.06400
C669        C  0.08201410  0.41069122  0.62573554    -0.00400
C670        C  0.08404757  0.38176121  0.61360463    -0.08900
C671        C  0.06524822  0.35881026  0.57811983     0.61500
H672        H  0.10648819  0.35117841  0.62736949     0.12200
H673        H  0.08496049  0.44000690  0.67801409     0.12200
C674        C  0.11350522  0.42038739  0.73559620     0.61700
F675        F  0.05184756  0.32529688  0.58989795    -0.23500
F676        F  0.08719271  0.36513212  0.54648673    -0.20800
F677        F  0.03870185  0.36232622  0.56465241    -0.20500
F678        F  0.14746806  0.43733743  0.74384471    -0.20500
F679        F  0.09752549  0.39210520  0.76031637    -0.20900
F680        F  0.10128558  0.44171573  0.74516118    -0.23500
C681        C  0.27132854  0.36242464  0.64739633    -0.06400
C682        C  0.26136959  0.38420749  0.66445338    -0.00400
C683        C  0.27915419  0.41895936  0.65307284    -0.09000
C684        C  0.30679992  0.43036309  0.62684401    -0.06400
C685        C  0.31919041  0.40935133  0.61332345    -0.00400
C686        C  0.29873457  0.37383391  0.62069464    -0.08900
C687        C  0.30361955  0.34631557  0.60163528     0.61500
H688        H  0.25709664  0.33563792  0.65458849     0.12200
H689        H  0.31898899  0.45636725  0.61670013     0.12200
C690        C  0.27026686  0.44463580  0.66928437     0.61700
F691        F  0.27297611  0.32033417  0.58844574    -0.23500
F692        F  0.31629508  0.33339497  0.63038414    -0.20800
F693        F  0.32452032  0.35719223  0.56844252    -0.20500
F694        F  0.27108119  0.44452546  0.71120198    -0.20500
F695        F  0.23868840  0.43682122  0.65590471    -0.20900
F696        F  0.29253619  0.47727675  0.65641308    -0.23500
C697        C  0.14185559  0.41273615  0.86086562    -0.06400
C698        C  0.12137023  0.37938644  0.84726654    -0.00400
C699        C  0.08906573  0.35998504  0.86508462    -0.09000
C700        C  0.07702038  0.37629135  0.89046875    -0.06400
C701        C  0.09584728  0.41113551  0.89933702    -0.00400
C702        C  0.13054659  0.42809771  0.88874332    -0.08900
C703        C  0.15742318  0.46121627  0.90686849     0.61500
H704        H  0.16745464  0.42710514  0.85009561     0.12200
H705        H  0.05215323  0.36166229  0.90309458     0.12200
C706        C  0.06713543  0.32217712  0.85815652     0.61700
F707        F  0.18391844  0.45731759  0.92005298    -0.23500
F708        F  0.14654992  0.47134982  0.93992550    -0.20800
F709        F  0.16911700  0.48640734  0.87755748    -0.20500
F710        F  0.08589029  0.30635605  0.86348367    -0.20500
F711        F  0.05383487  0.31635764  0.81944631    -0.20900
F712        F  0.04066251  0.30749170  0.88518554    -0.23500
C713        C  0.29143038  0.38672989  0.89993226    -0.06400
C714        C  0.32371663  0.40669439  0.88235310    -0.00400
C715        C  0.32531702  0.40872121  0.83867866    -0.09000
C716        C  0.29533721  0.39249453  0.81620167    -0.06400
C717        C  0.26397992  0.37377875  0.83432511    -0.00400
C718        C  0.26177784  0.37004097  0.87666132    -0.08900
C719        C  0.22799347  0.34853267  0.89691536     0.61500
H720        H  0.28852667  0.38343373  0.93206012     0.12200
H721        H  0.29637030  0.39443652  0.78336337     0.12200
C722        C  0.35671070  0.42601823  0.81211193     0.61700
F723        F  0.23063105  0.34860554  0.93871400    -0.23500
F724        F  0.21406427  0.31545289  0.88399403    -0.20800
F725        F  0.20672315  0.36069642  0.88671084    -0.20500
F726        F  0.38658785  0.44504006  0.83206182    -0.20500
F727        F  0.35351491  0.44737875  0.78462449    -0.20900
F728        F  0.35911854  0.40138999  0.79070313    -0.23500
C729        C  0.12060351  0.20424206  0.60452052    -0.06400
C730        C  0.08535297  0.18496371  0.60227369    -0.00400
C731        C  0.06710869  0.19959057  0.61914098    -0.09000
C732        C  0.08325529  0.22584850  0.64733812    -0.06400
C733        C  0.11799883  0.24180823  0.65478143    -0.00400
C734        C  0.13742850  0.23263284  0.62997116    -0.08900
C735        C  0.17555872  0.25207652  0.62982671     0.61500
H736        H  0.13510956  0.19627678  0.58687562     0.12200
H737        H  0.06832165  0.23456648  0.66285273     0.12200
C738        C  0.03188226  0.19100634  0.60657833     0.61700
F739        F  0.18856393  0.24163121  0.59907808    -0.23500
F740        F  0.18766675  0.24711859  0.66616500    -0.20800
F741        F  0.18707888  0.28620459  0.62379520    -0.20500
F742        F  0.00969639  0.17401711  0.63779013    -0.20500
F743        F  0.02104958  0.17194188  0.57173797    -0.20900
F744        F  0.03142118  0.22064452  0.59867101    -0.23500
C745        C  0.13142046  0.22310496  0.85372720    -0.06400
C746        C  0.11035238  0.22997987  0.82976020    -0.00400
C747        C  0.07516386  0.20795269  0.83171306    -0.09000
C748        C  0.06273374  0.17899556  0.85647047    -0.06400
C749        C  0.08387848  0.17079067  0.87895258    -0.00400
C750        C  0.11897496  0.19522731  0.88023524    -0.08900
C751        C  0.14518381  0.19417126  0.90791690     0.61500
H752        H  0.15821437  0.24059987  0.85269847     0.12200
H753        H  0.03596008  0.16319752  0.85919567     0.12200
C754        C  0.05050934  0.21407695  0.80721735     0.61700
F755        F  0.16406000  0.18416736  0.88571795    -0.23500
F756        F  0.13215736  0.17317052  0.94116744    -0.20800
F757        F  0.16639476  0.22621995  0.92289678    -0.20500
F758        F  0.05910191  0.21812321  0.76664192    -0.20500
F759        F  0.05067748  0.24265140  0.82107635    -0.20900
F760        F  0.01801023  0.18735767  0.81046060    -0.23500
Fe761      Fe  0.18953468  0.80670170  0.24949311     1.65800
Fe762      Fe  0.11697575  0.80912677  0.24840270     1.73200
Fe763      Fe  0.19112524  0.88185363  0.25517047     1.54400
O764        O  0.22734260  0.88215181  0.29256522    -0.82300
O765        O  0.11701975  0.83855760  0.20104851    -0.80600
O766        O  0.21708162  0.82938173  0.30149643    -0.84800
O767        O  0.22822240  0.84249635  0.21320850    -0.79600
O768        O  0.16459781  0.88172929  0.30585274    -0.81400
O769        O  0.11363476  0.77392330  0.20668722    -0.84100
C770        C  0.23545760  0.87061067  0.19639161     0.96600
C771        C  0.23346535  0.86073865  0.30958564     1.04100
O772        O  0.16590043  0.83250171  0.25116597    -1.13100
O773        O  0.11204109  0.77731371  0.29536513    -0.75600
O774        O  0.15397374  0.76725859  0.28509081    -0.79000
O775        O  0.21963962  0.88600185  0.20480510    -0.79700
C776        C  0.12625659  0.76004864  0.30163901     0.95500
O777        O  0.16456144  0.78159855  0.19737339    -0.77700
O778        O  0.11341172  0.84119856  0.28972238    -0.82900
C779        C  0.13229880  0.87051917  0.19834694     0.98200
C780        C  0.13300010  0.86640373  0.31120714     1.04100
O781        O  0.15869099  0.88922962  0.21835339    -0.78500
C782        C  0.13374015  0.76735567  0.18796179     1.02400
C783        C  0.14109597  0.57133368  0.09251045     0.85900
C784        C  0.11389806  0.53785416  0.10889252    -0.54300
C785        C  0.08571505  0.52104029  0.08500299     0.08800
C786        C  0.08492486  0.54469728  0.05092958     0.19800
C787        C  0.14510252  0.56681654  0.04774544    -0.55100
C788        C  0.11638218  0.55377279  0.02508951     0.08900
C789        C  0.12327718  0.59154845  0.09396043    -0.54600
C790        C  0.09374283  0.57875394  0.07250826     0.09500
H791        H  0.11805926  0.52857140  0.13731327     0.14000
H792        H  0.06095424  0.53340798  0.03407478    -0.00200
H793        H  0.16971505  0.57447536  0.03584756     0.14300
H794        H  0.13276815  0.61274325  0.11393690     0.14100
C795        C  0.42878305  0.85908230  0.40512631     0.85900
C796        C  0.46652499  0.87709894  0.40542193    -0.54300
C797        C  0.48269578  0.90757167  0.42472011     0.08800
C798        C  0.45736025  0.91475597  0.44835084     0.19800
C799        C  0.42103201  0.85335601  0.45039953    -0.55100
C800        C  0.43663064  0.88193635  0.47402638     0.08900
C801        C  0.42103673  0.88617805  0.39114967    -0.54600
C802        C  0.43164440  0.91355631  0.41626668     0.09500
H803        H  0.47899065  0.86286965  0.39983956     0.14000
H804        H  0.46982705  0.93855354  0.46577669    -0.00200
H805        H  0.40538618  0.82793199  0.46185800     0.14300
H806        H  0.40561716  0.88158489  0.36449031     0.14100
C807        C  0.14353152  0.56976758  0.41375596     0.85900
C808        C  0.12596921  0.58990001  0.41369426    -0.54300
C809        C  0.09461972  0.57440370  0.43051990     0.08800
C810        C  0.08621149  0.54062161  0.45268897     0.19800
C811        C  0.14676275  0.56507511  0.45953878    -0.55100
C812        C  0.11688129  0.55102959  0.48080672     0.08900
C813        C  0.11841628  0.53505995  0.39850602    -0.54600
C814        C  0.08958712  0.51769689  0.42059930     0.09500
H815        H  0.13918130  0.61542473  0.40184378     0.14000
H816        H  0.06152553  0.52843165  0.46785679    -0.00200
H817        H  0.17095248  0.57551542  0.47388293     0.14300
H818        H  0.12536287  0.52485573  0.37337517     0.14100
C819        C  0.07523959  0.92979479  0.41302571     0.85900
C820        C  0.08850555  0.96632328  0.40181178    -0.54300
C821        C  0.07606536  0.98307994  0.42382517     0.08800
C822        C  0.04625894  0.95857266  0.45189992     0.19800
C823        C  0.07662022  0.92795459  0.45927997    -0.55100
C824        C  0.06182730  0.94309109  0.48011917     0.08900
C825        C  0.03866673  0.91584339  0.40277422    -0.54600
C826        C  0.02192114  0.92814257  0.42490742     0.09500
H827        H  0.10631559  0.97723135  0.37740179     0.14000
H828        H  0.03396198  0.97081675  0.46748078    -0.00200
H829        H  0.08813810  0.91474021  0.47331866     0.14300
H830        H  0.02763634  0.89896382  0.37740615     0.14100
C831        C  0.07157020  0.92907488  0.09293312     0.85900
C832        C  0.03455632  0.91322256  0.10012290    -0.54300
C833        C  0.01780968  0.92528180  0.07704590     0.08800
C834        C  0.04257589  0.95678050  0.05101577     0.19800
C835        C  0.07683120  0.92968921  0.04745599    -0.55100
C836        C  0.06114854  0.94298515  0.02456717     0.08900
C837        C  0.08489338  0.96588831  0.10172626    -0.54600
C838        C  0.07042093  0.98175436  0.08130709     0.09500
H839        H  0.02344885  0.89353988  0.12286606     0.14000
H840        H  0.03017529  0.96840055  0.03371262    -0.00200
H841        H  0.09312405  0.92141906  0.03523528     0.14300
H842        H  0.10684248  0.97840148  0.12033291     0.14100
C843        C  0.42571285  0.85221977  0.08838085     0.85900
C844        C  0.41402962  0.87618268  0.10100413    -0.54300
C845        C  0.42682480  0.90609826  0.08015771     0.08800
C846        C  0.45460837  0.91058759  0.04960651     0.19800
C847        C  0.42027202  0.84935526  0.04222642    -0.55100
C848        C  0.43581554  0.87966073  0.02122375     0.08900
C849        C  0.46323678  0.87135363  0.09187440    -0.54600
C850        C  0.47957780  0.90277212  0.07371459     0.09500
H851        H  0.39507755  0.86763982  0.12413646     0.14000
H852        H  0.46703159  0.93548048  0.03407534    -0.00200
H853        H  0.40688774  0.82548294  0.02725559     0.14300
H854        H  0.47481592  0.85894658  0.10750403     0.14100
C855        C  0.35556142  0.92666176  0.09212511     0.85900
C856        C  0.38006213  0.96300569  0.10280743    -0.54300
C857        C  0.40823201  0.97942230  0.07931269     0.08800
C858        C  0.41233703  0.95434908  0.05125098     0.19800
C859        C  0.35156325  0.92614198  0.04612049    -0.55100
C860        C  0.38071677  0.93910705  0.02404913     0.08900
C861        C  0.37695578  0.91092855  0.10088837    -0.54600
C862        C  0.40663846  0.92402206  0.07938182     0.09500
H863        H  0.37651321  0.97417854  0.12962926     0.14000
H864        H  0.43636523  0.96608030  0.03459788    -0.00200
H865        H  0.32672935  0.91534149  0.03318818     0.14300
H866        H  0.36777786  0.89077743  0.12295944     0.14100
C867        C  0.06650111  0.63820384  0.40412402     0.85900
C868        C  0.03212262  0.61047590  0.39072617    -0.54300
C869        C  0.01625640  0.58335792  0.41674590     0.08800
C870        C  0.04092288  0.58341194  0.44966758     0.19800
C871        C  0.06322270  0.64406336  0.44901888    -0.55100
C872        C  0.05119277  0.61598282  0.47359272     0.08900
C873        C  0.08515373  0.61927550  0.40180289    -0.54600
C874        C  0.07387312  0.59142792  0.42670301     0.09500
H875        H  0.02090636  0.61196811  0.36242736     0.14000
H876        H  0.03031970  0.55983469  0.46786616    -0.00200
H877        H  0.07138760  0.66936639  0.45963151     0.14300
H878        H  0.10513532  0.62760140  0.37995132     0.14100
C879        C  0.42528908  0.57138433  0.41452400     0.85900
C880        C  0.41021072  0.53433446  0.40537474    -0.54300
C881        C  0.42266581  0.51710348  0.42672235     0.08800
C882        C  0.45301473  0.54111110  0.45396310     0.19800
C883        C  0.42469411  0.57443421  0.46019109    -0.55100
C884        C  0.43921103  0.55905832  0.48181479     0.08900
C885        C  0.46247243  0.58617726  0.40695266    -0.54600
C886        C  0.47756580  0.56987967  0.42494487     0.09500
H887        H  0.39049667  0.52360574  0.38303099     0.14000
H888        H  0.46470438  0.52828284  0.47020823    -0.00200
H889        H  0.41441939  0.58894006  0.47315473     0.14300
H890        H  0.47670364  0.61122876  0.39387523     0.14100
C891        C  0.35463862  0.92601701  0.41106389     0.85900
C892        C  0.37838945  0.91358299  0.40109626    -0.54300
C893        C  0.40859636  0.92838091  0.42098943     0.08800
C894        C  0.41168121  0.95612577  0.45118804     0.19800
C895        C  0.35068216  0.92179004  0.45721199    -0.55100
C896        C  0.38019708  0.93782389  0.47897966     0.08900
C897        C  0.37419085  0.96412301  0.40587486    -0.54600
C898        C  0.40435023  0.98088407  0.42601257     0.09500
H899        H  0.36957682  0.89275830  0.38028814     0.14000
H900        H  0.43586528  0.96877121  0.46755821    -0.00200
H901        H  0.32636380  0.90885637  0.47121843     0.14300
H902        H  0.36259629  0.97601727  0.38932793     0.14100
C903        C  0.42933715  0.57205251  0.09597227     0.85900
C904        C  0.46552703  0.58479806  0.10706383    -0.54300
C905        C  0.48217058  0.57273218  0.08436266     0.08800
C906        C  0.45806535  0.54419315  0.05470752     0.19800
C907        C  0.42921975  0.57669147  0.04979681    -0.55100
C908        C  0.44377456  0.56187947  0.02750443     0.08900
C909        C  0.41224881  0.53431997  0.09960210    -0.54600
C910        C  0.42689658  0.51848694  0.08001391     0.09500
H911        H  0.47680410  0.60421608  0.12975801     0.14000
H912        H  0.47003910  0.53211427  0.03800514    -0.00200
H913        H  0.41544448  0.58770126  0.03636749     0.14300
H914        H  0.38760738  0.52178840  0.11286303     0.14100
C915        C  0.06892208  0.64782360  0.08461230     0.85900
C916        C  0.08795290  0.62891594  0.09009009    -0.54300
C917        C  0.07469836  0.59798495  0.07149224     0.08800
C918        C  0.04114815  0.58853918  0.04899059     0.19800
C919        C  0.06474521  0.64928796  0.03904426    -0.55100
C920        C  0.05106311  0.61878734  0.01954563     0.08900
C921        C  0.03494553  0.62218435  0.10140495    -0.54600
C922        C  0.01813578  0.59194845  0.08106005     0.09500
H923        H  0.10990242  0.63992388  0.10883489     0.14000
H924        H  0.02939095  0.56342038  0.03454912    -0.00200
H925        H  0.07388431  0.67352074  0.02413491     0.14300
H926        H  0.02547742  0.62881768  0.12733692     0.14100
Fe927      Fe  0.37832464  0.68934001  0.25015211     1.65800
Fe928      Fe  0.30491019  0.61469383  0.25221756     1.73200
Fe929      Fe  0.30477482  0.68963026  0.25301508     1.54400
O930        O  0.33882918  0.72765501  0.29024577    -0.82300
O931        O  0.27484086  0.61270970  0.20416554    -0.80600
O932        O  0.38205161  0.71939275  0.29840419    -0.84800
O933        O  0.38068329  0.72484219  0.20977729    -0.79600
O934        O  0.27776072  0.66333984  0.30358272    -0.81400
O935        O  0.33676043  0.61067664  0.21105421    -0.84100
C936        C  0.36035634  0.73222553  0.19294355     0.96600
C937        C  0.36697750  0.73555083  0.30598312     1.04100
O938        O  0.32932872  0.66452259  0.25178296    -1.13100
O939        O  0.33266226  0.61154507  0.30014192    -0.75600
O940        O  0.38240396  0.65740079  0.29066256    -0.79000
O941        O  0.32955062  0.71831012  0.20236892    -0.79700
C942        C  0.36380283  0.62924069  0.30779298     0.95500
O943        O  0.38061361  0.66210774  0.20153687    -0.77700
O944        O  0.26980218  0.61145447  0.29366967    -0.82900
C945        C  0.25997223  0.62936177  0.19677050     0.98200
C946        C  0.26343747  0.63194863  0.31199875     1.04100
O947        O  0.26701370  0.65610188  0.21566134    -0.78500
C948        C  0.36416241  0.63080930  0.19339799     1.02400
C949        C  0.38187031  0.58893555  0.18176595    -0.06400
C950        C  0.37934985  0.61620761  0.16618527    -0.00400
C951        C  0.39401645  0.63006933  0.12811943    -0.09000
C952        C  0.41030390  0.61556695  0.10687496    -0.06400
C953        C  0.41298483  0.58794367  0.12241617    -0.00400
C954        C  0.40070548  0.57648457  0.16272802    -0.08900
C955        C  0.40669586  0.55185777  0.18824133     0.61500
H956        H  0.37080345  0.57867260  0.21112132     0.12200
H957        H  0.42205157  0.62682687  0.07834420     0.12200
C958        C  0.39119448  0.65900181  0.10911144     0.61700
F959        F  0.41184429  0.56186466  0.22838483    -0.23500
F960        F  0.43462134  0.55036459  0.17662371    -0.20800
F961        F  0.37875641  0.51990456  0.18640990    -0.20500
F962        F  0.40903170  0.68803214  0.13168505    -0.20500
F963        F  0.35787026  0.65048450  0.10757363    -0.20900
F964        F  0.40365007  0.66606580  0.06998749    -0.23500
C965        C  0.36217471  0.59708074  0.37001158    -0.06400
C966        C  0.37988662  0.61606325  0.33597101    -0.00400
C967        C  0.41161524  0.61970027  0.32727792    -0.09000
C968        C  0.42406557  0.60395397  0.35283407    -0.06400
C969        C  0.40795349  0.58683078  0.38889361    -0.00400
C970        C  0.37489213  0.58135867  0.39606822    -0.08900
C971        C  0.35112095  0.55909658  0.42943712     0.61500
H972        H  0.33762452  0.59391900  0.37585546     0.12200
H973        H  0.44633954  0.60404501  0.34308444     0.12200
C974        C  0.43258025  0.63955210  0.29074118     0.61700
F975        F  0.31899923  0.54026097  0.41390431    -0.23500
F976        F  0.35061426  0.57949279  0.45979934    -0.20800
F977        F  0.35915278  0.53623770  0.44609702    -0.20500
F978        F  0.44424843  0.67370078  0.29600845    -0.20500
F979        F  0.41368944  0.62868906  0.25579500    -0.20900
F980        F  0.46012262  0.63552795  0.28528922    -0.23500
C981        C  0.39617422  0.79218326  0.18185194    -0.06400
C982        C  0.37482540  0.76092138  0.16453709    -0.00400
C983        C  0.37041226  0.75843594  0.12219469    -0.09000
C984        C  0.38719366  0.78816026  0.09863000    -0.06400
C985        C  0.40922942  0.82026728  0.11560907    -0.00400
C986        C  0.41363793  0.82194316  0.15897184    -0.08900
C987        C  0.43543235  0.85303371  0.18506262     0.61500
H988        H  0.39923815  0.79337851  0.21454894     0.12200
H989        H  0.38235866  0.78523727  0.06662749     0.12200
C990        C  0.34897015  0.72539867  0.10007636     0.61700
F991        F  0.41533130  0.85621468  0.21365098    -0.23500
F992        F  0.45235668  0.88357163  0.16510731    -0.20800
F993        F  0.45905539  0.84797289  0.20521447    -0.20500
F994        F  0.32252638  0.72643169  0.08135959    -0.20500
F995        F  0.33614351  0.69733441  0.12523260    -0.20900
F996        F  0.36808238  0.72148490  0.07076202    -0.23500
C997        C  0.20479797  0.58725289  0.40077825    -0.06400
C998        C  0.17507365  0.58604910  0.38685997    -0.00400
C999        C  0.17530618  0.59889142  0.34676890    -0.09000
C1000       C  0.20587770  0.61662812  0.32621284    -0.06400
C1001       C  0.23498052  0.61781372  0.34037776    -0.00400
C1002       C  0.23453987  0.60221466  0.37767208    -0.08900
C1003       C  0.26541597  0.60162049  0.39286303     0.61500
H1004       H  0.20454602  0.57507536  0.42902581     0.12200
H1005       H  0.20654152  0.62778586  0.29675993     0.12200
C1006       C  0.14522161  0.59506683  0.32236024     0.61700
F1007       F  0.26044353  0.58666334  0.43080890    -0.23500
F1008       F  0.29204797  0.63434059  0.39538211    -0.20800
F1009       F  0.27349184  0.58349136  0.36640564    -0.20500
F1010       F  0.14695478  0.62618123  0.31964295    -0.20500
F1011       F  0.11428905  0.57176861  0.33740298    -0.20900
F1012       F  0.14662830  0.58458904  0.28354453    -0.23500
C1013       C  0.36276960  0.77396328  0.35555969    -0.06400
C1014       C  0.38325405  0.76583118  0.33249394    -0.00400
C1015       C  0.41809191  0.78914349  0.33085848    -0.09000
C1016       C  0.43079365  0.81945527  0.35241037    -0.06400
C1017       C  0.41113740  0.82669040  0.37892008    -0.00400
C1018       C  0.37564007  0.80385825  0.37850857    -0.08900
C1019       C  0.34904630  0.80905238  0.39927745     0.61500
H1020       H  0.33591487  0.75670657  0.35530102     0.12200
H1021       H  0.45648926  0.83812205  0.34686044     0.12200
C1022       C  0.44216416  0.78287065  0.30580254     0.61700
F1023       F  0.32784746  0.81000340  0.37001369    -0.23500
F1024       F  0.36113017  0.83816840  0.42151183    -0.20800
F1025       F  0.33042187  0.78200248  0.42504035    -0.20500
F1026       F  0.43161272  0.77671130  0.26593083    -0.20500
F1027       F  0.44359939  0.75541709  0.32161504    -0.20900
F1028       F  0.47446600  0.81022359  0.30596654    -0.23500
C1029       C  0.21661265  0.58193272  0.15648019    -0.06400
C1030       C  0.23248775  0.61641374  0.16608872    -0.00400
C1031       C  0.22186314  0.63716816  0.14585738    -0.09000
C1032       C  0.19359408  0.62168893  0.12047689    -0.06400
C1033       C  0.17491037  0.58636744  0.11507329    -0.00400
C1034       C  0.18951520  0.56691960  0.12933516    -0.08900
C1035       C  0.17912684  0.53094023  0.11689789     0.61500
H1036       H  0.22578258  0.56629656  0.16994665     0.12200
H1037       H  0.18598757  0.63754951  0.10456517     0.12200
C1038       C  0.23985972  0.67546627  0.15036201     0.61700
F1039       F  0.15825233  0.51977933  0.08361389    -0.23500
F1040       F  0.16364214  0.50923695  0.14922967    -0.20800
F1041       F  0.20742498  0.52930668  0.10680302    -0.20500
F1042       F  0.27385672  0.68887428  0.14460021    -0.20500
F1043       F  0.23406372  0.68376046  0.18847627    -0.20900
F1044       F  0.22897835  0.69062959  0.12222333    -0.23500
C1045       C  0.10649242  0.87234403  0.13343774    -0.06400
C1046       C  0.11803309  0.88633612  0.17176227    -0.00400
C1047       C  0.11140593  0.91160567  0.18588095    -0.09000
C1048       C  0.09588518  0.92382819  0.15947740    -0.06400
C1049       C  0.08680016  0.91210364  0.11938251    -0.00400
C1050       C  0.08878897  0.88296516  0.10807122    -0.08900
C1051       C  0.07081129  0.86031215  0.07209860     0.61500
H1052       H  0.10991063  0.85153225  0.12409648     0.12200
H1053       H  0.08976611  0.94221092  0.17082714     0.12200
C1054       C  0.11858693  0.92424310  0.22933642     0.61700
F1055       F  0.05910713  0.82675683  0.08248658    -0.23500
F1056       F  0.09291522  0.86854354  0.04018096    -0.20800
F1057       F  0.04316642  0.86237860  0.05979621    -0.20500
F1058       F  0.15267681  0.94091030  0.23677809    -0.20500
F1059       F  0.10252026  0.89713474  0.25571303    -0.20900
F1060       F  0.10725769  0.94658118  0.23739621    -0.23500
C1061       C  0.27185962  0.86355073  0.14631987    -0.06400
C1062       C  0.26369152  0.88558303  0.16629877    -0.00400
C1063       C  0.28323299  0.92079556  0.15775878    -0.09000
C1064       C  0.31099776  0.93229907  0.13163648    -0.06400
C1065       C  0.32141474  0.91063163  0.11478602    -0.00400
C1066       C  0.29903674  0.87502990  0.11918152    -0.08900
C1067       C  0.30123738  0.84739463  0.09620734     0.61500
H1068       H  0.25616886  0.83653398  0.15124555     0.12200
H1069       H  0.32448683  0.95882267  0.12380479     0.12200
C1070       C  0.27586097  0.94670015  0.17668214     0.61700
F1071       F  0.27003069  0.82505812  0.08030200    -0.23500
F1072       F  0.31052003  0.82982398  0.12269446    -0.20800
F1073       F  0.32330582  0.85905287  0.06417841    -0.20500
F1074       F  0.27563408  0.94390188  0.21847617    -0.20500
F1075       F  0.24514176  0.94149427  0.16319538    -0.20900
F1076       F  0.29969276  0.97959771  0.16658962    -0.23500
C1077       C  0.13941862  0.91196862  0.35803248    -0.06400
C1078       C  0.11840180  0.87965390  0.34184227    -0.00400
C1079       C  0.08425293  0.86184591  0.35452635    -0.09000
C1080       C  0.07236701  0.87836312  0.37964820    -0.06400
C1081       C  0.09244909  0.91228712  0.39180051    -0.00400
C1082       C  0.12765808  0.92786290  0.38443504    -0.08900
C1083       C  0.15439286  0.96076264  0.40325151     0.61500
H1084       H  0.16575863  0.92527356  0.35006773     0.12200
H1085       H  0.04668427  0.86451242  0.38978456     0.12200
C1086       C  0.05981746  0.82564802  0.34190428     0.61700
F1087       F  0.18142044  0.95734568  0.41535468    -0.23500
F1088       F  0.14349647  0.96984354  0.43717914    -0.20800
F1089       F  0.16544650  0.98648705  0.37470042    -0.20500
F1090       F  0.07346130  0.80527130  0.35036901    -0.20500
F1091       F  0.05279805  0.82468481  0.30095869    -0.20900
F1092       F  0.02962746  0.81215553  0.36237863    -0.23500
C1093       C  0.29299624  0.88071339  0.39969732    -0.06400
C1094       C  0.32294323  0.90823669  0.38393491    -0.00400
C1095       C  0.32321772  0.91622484  0.34162140    -0.09000
C1096       C  0.29291181  0.90061498  0.32005829    -0.06400
C1097       C  0.26327871  0.87444154  0.33638919    -0.00400
C1098       C  0.26330781  0.86339070  0.37644663    -0.08900
C1099       C  0.23209089  0.83380642  0.39457619     0.61500
H1100       H  0.29289496  0.87152231  0.42989643     0.12200
H1101       H  0.29248384  0.90836083  0.28895746     0.12200
C1102       C  0.35367927  0.94139426  0.31684280     0.61700
F1103       F  0.23636184  0.82885773  0.43514080    -0.23500
F1104       F  0.22448218  0.80451793  0.37410134    -0.20800
F1105       F  0.20539423  0.83960053  0.39134451    -0.20500
F1106       F  0.38381012  0.94628677  0.33160215    -0.20500
F1107       F  0.35455182  0.97212050  0.31499374    -0.20900
F1108       F  0.35117930  0.92980467  0.27761436    -0.23500
C1109       C  0.12119995  0.70151331  0.10744109    -0.06400
C1110       C  0.08590261  0.68335926  0.10416973    -0.00400
C1111       C  0.06834982  0.69921589  0.11959380    -0.09000
C1112       C  0.08515785  0.72646768  0.14637382    -0.06400
C1113       C  0.11962185  0.74110055  0.15522984    -0.00400
C1114       C  0.13846116  0.72952575  0.13324999    -0.08900
C1115       C  0.17633719  0.74553313  0.13715241     0.61500
H1116       H  0.13541805  0.69291581  0.09033312     0.12200
H1117       H  0.07079856  0.73658816  0.16031133     0.12200
C1118       C  0.03274434  0.69010563  0.10813555     0.61700
F1119       F  0.18917650  0.73128085  0.11101586    -0.23500
F1120       F  0.18466360  0.74094268  0.17612195    -0.20800
F1121       F  0.19161143  0.77970145  0.12801687    -0.20500
F1122       F  0.01164973  0.67441259  0.14067229    -0.20500
F1123       F  0.02069323  0.66957477  0.07459794    -0.20900
F1124       F  0.03193966  0.71935566  0.09879907    -0.23500
C1125       C  0.13074674  0.72372192  0.35436532    -0.06400
C1126       C  0.11004333  0.73026632  0.32919406    -0.00400
C1127       C  0.07486661  0.70811666  0.33051828    -0.09000
C1128       C  0.06205767  0.67971036  0.35631471    -0.06400
C1129       C  0.08281680  0.67168397  0.37994738    -0.00400
C1130       C  0.11793322  0.69607642  0.38138907    -0.08900
C1131       C  0.14384066  0.69565673  0.41014984     0.61500
H1132       H  0.15753542  0.74130913  0.35391081     0.12200
H1133       H  0.03524176  0.66412605  0.35872983     0.12200
C1134       C  0.05063153  0.71334705  0.30396874     0.61700
F1135       F  0.16500141  0.68835266  0.38841928    -0.23500
F1136       F  0.13060610  0.67308131  0.44196065    -0.20800
F1137       F  0.16275492  0.72737825  0.42711508    -0.20500
F1138       F  0.06020667  0.71646667  0.26380272    -0.20500
F1139       F  0.05012569  0.74205426  0.31575570    -0.20900
F1140       F  0.01819859  0.68649970  0.30683916    -0.23500
Fe1141     Fe  0.18928981  0.80620053  0.74986708     1.65800
Fe1142     Fe  0.11694474  0.80925001  0.74755969     1.73200
Fe1143     Fe  0.19149677  0.88159625  0.75423759     1.54400
O1144       O  0.22782106  0.88222493  0.79197763    -0.82300
O1145       O  0.11724773  0.83856230  0.69978996    -0.80600
O1146       O  0.21709656  0.82938280  0.80150147    -0.84800
O1147       O  0.22796778  0.84131082  0.71309488    -0.79600
O1148       O  0.16511162  0.88187286  0.80470270    -0.81400
O1149       O  0.11322394  0.77355280  0.70614173    -0.84100
C1150       C  0.23541493  0.86944637  0.69621041     0.96600
C1151       C  0.23367319  0.86075815  0.80936062     1.04100
O1152       O  0.16592080  0.83226611  0.75065619    -1.13100
O1153       O  0.11175743  0.77772703  0.79497132    -0.75600
O1154       O  0.15384155  0.76763507  0.78623139    -0.79000
O1155       O  0.21969107  0.88498744  0.70415609    -0.79700
C1156       C  0.12609703  0.76073743  0.80237482     0.95500
O1157       O  0.16397988  0.78039307  0.69827617    -0.77700
O1158       O  0.11363122  0.84171248  0.78860171    -0.82900
C1159       C  0.13284665  0.87052959  0.69689423     0.98200
C1160       C  0.13355586  0.86667817  0.81024242     1.04100
O1161       O  0.15930891  0.88895091  0.71693064    -0.78500
C1162       C  0.13330583  0.76647498  0.68822613     1.02400
C1163       C  0.14011419  0.56963361  0.59386120     0.85900
C1164       C  0.11290871  0.53601845  0.60996376    -0.54300
C1165       C  0.08475086  0.51931444  0.58599753     0.08800
C1166       C  0.08411405  0.54307695  0.55188958     0.19800
C1167       C  0.14434882  0.56531877  0.54905733    -0.55100
C1168       C  0.11573628  0.55221718  0.52618783     0.08900
C1169       C  0.12217975  0.58977261  0.59525455    -0.54600
C1170       C  0.09273506  0.57706224  0.57360678     0.09500
H1171       H  0.11718182  0.52657362  0.63816574     0.14000
H1172       H  0.06023390  0.53182246  0.53483675    -0.00200
H1173       H  0.16903787  0.57320705  0.53724384     0.14300
H1174       H  0.13172490  0.61107382  0.61506269     0.14100
C1175       C  0.42965212  0.85739924  0.90745348     0.85900
C1176       C  0.46738979  0.87541452  0.90836468    -0.54300
C1177       C  0.48327515  0.90619908  0.92691441     0.08800
C1178       C  0.45772662  0.91357620  0.94962365     0.19800
C1179       C  0.42150900  0.85218225  0.95261809    -0.55100
C1180       C  0.43665644  0.88110594  0.97571629     0.08900
C1181       C  0.42196701  0.88428636  0.89238084    -0.54600
C1182       C  0.43231606  0.91188296  0.91697277     0.09500
H1183       H  0.48005042  0.86123942  0.90362579     0.14000
H1184       H  0.47001911  0.93764960  0.96650437    -0.00200
H1185       H  0.40598294  0.82684048  0.96434401     0.14300
H1186       H  0.40658168  0.87936710  0.86560292     0.14100
C1187       C  0.14359877  0.57091921  0.91261706     0.85900
C1188       C  0.12541648  0.59044974  0.91178708    -0.54300
C1189       C  0.09427931  0.57504112  0.92929563     0.08800
C1190       C  0.08640343  0.54156681  0.95190301     0.19800
C1191       C  0.14705113  0.56703091  0.95845850    -0.55100
C1192       C  0.11727728  0.55264761  0.97980224     0.08900
C1193       C  0.11886245  0.53582544  0.89810122    -0.54600
C1194       C  0.09002734  0.51846396  0.92027536     0.09500
H1195       H  0.13845047  0.61585297  0.89966857     0.14000
H1196       H  0.06182261  0.52927324  0.96731698    -0.00200
H1197       H  0.17125560  0.57830360  0.97282567     0.14300
H1198       H  0.12611989  0.52547546  0.87343554     0.14100
C1199       C  0.07499838  0.92874568  0.91204554     0.85900
C1200       C  0.08682817  0.96480962  0.89960478    -0.54300
C1201       C  0.07442567  0.98139781  0.92196544     0.08800
C1202       C  0.04533032  0.95680880  0.95077045     0.19800
C1203       C  0.07740275  0.92799776  0.95824303    -0.55100
C1204       C  0.06215131  0.94264511  0.97909955     0.08900
C1205       C  0.03813272  0.91332811  0.90283845    -0.54600
C1206       C  0.02110215  0.92570853  0.92434822     0.09500
H1207       H  0.10431755  0.97581251  0.87484647     0.14000
H1208       H  0.03269626  0.96873048  0.96632640    -0.00200
H1209       H  0.09001436  0.91585808  0.97221419     0.14300
H1210       H  0.02759080  0.89585811  0.87802209     0.14100
C1211       C  0.07054987  0.92942876  0.59400172     0.85900
C1212       C  0.03353883  0.91359774  0.60134058    -0.54300
C1213       C  0.01679968  0.92548827  0.57800845     0.08800
C1214       C  0.04146151  0.95677395  0.55158648     0.19800
C1215       C  0.07564311  0.92953946  0.54855944    -0.55100
C1216       C  0.06011033  0.94286367  0.52547433     0.08900
C1217       C  0.08386489  0.96643062  0.60214716    -0.54600
C1218       C  0.06929867  0.98208950  0.58144436     0.09500
H1219       H  0.02238326  0.89375869  0.62387873     0.14000
H1220       H  0.02897005  0.96819774  0.53411251    -0.00200
H1221       H  0.09170205  0.92084935  0.53652317     0.14300
H1222       H  0.10627177  0.97947804  0.61970378     0.14100
C1223       C  0.42571908  0.85151996  0.58621569     0.85900
C1224       C  0.41206968  0.87410280  0.59755242    -0.54300
C1225       C  0.42541951  0.90479558  0.57828167     0.08800
C1226       C  0.45410317  0.91053865  0.54873963     0.19800
C1227       C  0.42165455  0.84904137  0.53992655    -0.55100
C1228       C  0.43648006  0.87977321  0.51955007     0.08900
C1229       C  0.46296003  0.87168957  0.59103007    -0.54600
C1230       C  0.47897943  0.90335706  0.57387373     0.09500
H1231       H  0.39101648  0.86366529  0.61791888     0.14000
H1232       H  0.46628607  0.93560652  0.53360757    -0.00200
H1233       H  0.40963344  0.82514950  0.52466856     0.14300
H1234       H  0.47531924  0.85845597  0.60231390     0.14100
C1235       C  0.35561944  0.92659017  0.59276284     0.85900
C1236       C  0.37996422  0.96296229  0.60340799    -0.54300
C1237       C  0.40832131  0.97941297  0.58023751     0.08800
C1238       C  0.41218143  0.95441854  0.55162194     0.19800
C1239       C  0.35138831  0.92608225  0.54679845    -0.55100
C1240       C  0.38043402  0.93933817  0.52457486     0.08900
C1241       C  0.37723117  0.91113120  0.60155000    -0.54600
C1242       C  0.40642710  0.92384601  0.57930720     0.09500
H1243       H  0.37678046  0.97354736  0.63099699     0.14000
H1244       H  0.43613360  0.96618621  0.53483053    -0.00200
H1245       H  0.32650925  0.91517917  0.53395411     0.14300
H1246       H  0.36877865  0.89160456  0.62442308     0.14100
C1247       C  0.06622323  0.63931891  0.90501876     0.85900
C1248       C  0.03185069  0.61164031  0.89150544    -0.54300
C1249       C  0.01604833  0.58438993  0.91736551     0.08800
C1250       C  0.04078442  0.58428892  0.95005783     0.19800
C1251       C  0.06289519  0.64491677  0.94993130    -0.55100
C1252       C  0.05082849  0.61672364  0.97427108     0.08900
C1253       C  0.08493487  0.62050138  0.90234867    -0.54600
C1254       C  0.07371585  0.59242200  0.92678246     0.09500
H1255       H  0.02053026  0.61335986  0.86340209     0.14000
H1256       H  0.03021584  0.56061399  0.96807324    -0.00200
H1257       H  0.07094631  0.67015224  0.96068939     0.14300
H1258       H  0.10453034  0.62876204  0.88002371     0.14100
C1259       C  0.42746518  0.57327415  0.91533536     0.85900
C1260       C  0.41020409  0.53572065  0.90721063    -0.54300
C1261       C  0.42272979  0.51784232  0.92707277     0.08800
C1262       C  0.45396816  0.54120445  0.95352189     0.19800
C1263       C  0.42887240  0.57731746  0.96084739    -0.55100
C1264       C  0.44180896  0.56032296  0.98198707     0.08900
C1265       C  0.46408156  0.58613733  0.90587943    -0.54600
C1266       C  0.47863008  0.56920981  0.92367006     0.09500
H1267       H  0.38913295  0.52512574  0.88669545     0.14000
H1268       H  0.46517279  0.52778366  0.96951143    -0.00200
H1269       H  0.42316589  0.59521384  0.97420504     0.14300
H1270       H  0.47853667  0.61060564  0.89148223     0.14100
C1271       C  0.35505799  0.92377279  0.91068792     0.85900
C1272       C  0.37853952  0.91078099  0.90175559    -0.54300
C1273       C  0.40885568  0.92607770  0.92143579     0.08800
C1274       C  0.41222761  0.95448078  0.95057387     0.19800
C1275       C  0.35115815  0.92066349  0.95683682    -0.55100
C1276       C  0.38066882  0.93701320  0.97850402     0.08900
C1277       C  0.37486264  0.96171191  0.90430961    -0.54600
C1278       C  0.40534906  0.97869608  0.92385365     0.09500
H1279       H  0.36968365  0.88953112  0.88157431     0.14000
H1280       H  0.43645721  0.96740468  0.96686406    -0.00200
H1281       H  0.32690972  0.90815958  0.97093958     0.14300
H1282       H  0.36344117  0.97322617  0.88652433     0.14100
C1283       C  0.42810746  0.57181307  0.59568530     0.85900
C1284       C  0.46412237  0.58391978  0.60686032    -0.54300
C1285       C  0.48062539  0.57189249  0.58382377     0.08800
C1286       C  0.45605084  0.54339175  0.55427624     0.19800
C1287       C  0.42811268  0.57679228  0.54954730    -0.55100
C1288       C  0.44185228  0.56127234  0.52718548     0.08900
C1289       C  0.41040432  0.53409950  0.59914203    -0.54600
C1290       C  0.42465259  0.51794488  0.57961831     0.09500
H1291       H  0.47535355  0.60295071  0.62997340     0.14000
H1292       H  0.46776411  0.53101589  0.53767788    -0.00200
H1293       H  0.41536371  0.58890517  0.53619726     0.14300
H1294       H  0.38592776  0.52197363  0.61283768     0.14100
C1295       C  0.06913526  0.64729081  0.58395896     0.85900
C1296       C  0.08706348  0.62739525  0.59104625    -0.54300
C1297       C  0.07387422  0.59657603  0.57218694     0.08800
C1298       C  0.04099870  0.58788999  0.54853102     0.19800
C1299       C  0.06625946  0.64884013  0.53819372    -0.55100
C1300       C  0.05199338  0.61824862  0.51886736     0.08900
C1301       C  0.03444291  0.62247391  0.59947998    -0.54600
C1302       C  0.01774593  0.59197967  0.57959095     0.09500
H1303       H  0.10811905  0.63758055  0.61123076     0.14000
H1304       H  0.02905544  0.56276051  0.53411103    -0.00200
H1305       H  0.07629483  0.67311019  0.52309265     0.14300
H1306       H  0.02453465  0.62998445  0.62416798     0.14100
Fe1307     Fe  0.37904897  0.68936388  0.74930505     1.65800
Fe1308     Fe  0.30540229  0.61496803  0.75376266     1.73200
Fe1309     Fe  0.30574340  0.69025769  0.75246189     1.54400
O1310       O  0.34004451  0.72801976  0.79010356    -0.82300
O1311       O  0.27408006  0.61177498  0.70636308    -0.80600
O1312       O  0.38332480  0.71966621  0.79723090    -0.84800
O1313       O  0.38139957  0.72468321  0.70853514    -0.79600
O1314       O  0.27824437  0.66450372  0.80284565    -0.81400
O1315       O  0.33644312  0.61021416  0.71213017    -0.84100
C1316       C  0.36112700  0.73218424  0.69179602     0.96600
C1317       C  0.36820473  0.73557805  0.80570516     1.04100
O1318       O  0.32999954  0.66480386  0.75182776    -1.13100
O1319       O  0.33408003  0.61269340  0.80131561    -0.75600
O1320       O  0.38391366  0.65790676  0.78990348    -0.79000
O1321       O  0.33049511  0.71864966  0.70170732    -0.79700
C1322       C  0.36541291  0.63018150  0.80794948     0.95500
O1323       O  0.38022948  0.66147882  0.70114984    -0.77700
O1324       O  0.27113362  0.61266904  0.79567898    -0.82900
C1325       C  0.25986068  0.62887703  0.69771077     0.98200
C1326       C  0.26430134  0.63339952  0.81248976     1.04100
O1327       O  0.26800770  0.65660833  0.71496685    -0.78500
C1328       C  0.36352793  0.63009684  0.69371668     1.02400
C1329       C  0.38004870  0.58752466  0.68114789    -0.06400
C1330       C  0.37813732  0.61529418  0.66616767    -0.00400
C1331       C  0.39348985  0.62992138  0.62866382    -0.09000
C1332       C  0.40981897  0.61563561  0.60725281    -0.06400
C1333       C  0.41217000  0.58776106  0.62239999    -0.00400
C1334       C  0.39944079  0.57568699  0.66238003    -0.08900
C1335       C  0.40573970  0.55140918  0.68823201     0.61500
H1336       H  0.36856734  0.57671896  0.71017448     0.12200
H1337       H  0.42201978  0.62736705  0.57908725     0.12200
C1338       C  0.39155963  0.65962688  0.61053219     0.61700
F1339       F  0.41353030  0.56340753  0.72747855    -0.23500
F1340       F  0.43210715  0.54776013  0.67514411    -0.20800
F1341       F  0.37694291  0.52003132  0.68937527    -0.20500
F1342       F  0.41066238  0.68836997  0.63315476    -0.20500
F1343       F  0.35858994  0.65236250  0.61010289    -0.20900
F1344       F  0.40330472  0.66648471  0.57110358    -0.23500
C1345       C  0.36547511  0.60112731  0.87220400    -0.06400
C1346       C  0.38177645  0.61734073  0.83619899    -0.00400
C1347       C  0.41253610  0.61919491  0.82631600    -0.09000
C1348       C  0.42530111  0.60414396  0.85250511    -0.06400
C1349       C  0.41091643  0.59006540  0.89050582    -0.00400
C1350       C  0.37913799  0.58721511  0.89972844    -0.08900
C1351       C  0.35886102  0.57013739  0.93783049     0.61500
H1352       H  0.34192005  0.59993436  0.87893164     0.12200
H1353       H  0.44641698  0.60240384  0.84187671     0.12200
C1354       C  0.43198149  0.63628973  0.78778708     0.61700
F1355       F  0.32571547  0.56192831  0.93337341    -0.23500
F1356       F  0.37179872  0.59187278  0.97027229    -0.20800
F1357       F  0.35864065  0.54036416  0.94656564    -0.20500
F1358       F  0.44549747  0.67092709  0.79057166    -0.20500
F1359       F  0.41109187  0.62449194  0.75460778    -0.20900
F1360       F  0.45808250  0.63009775  0.78107753    -0.23500
C1361       C  0.39731150  0.79201591  0.68023713    -0.06400
C1362       C  0.37548353  0.76077450  0.66314271    -0.00400
C1363       C  0.37042266  0.75818703  0.62085135    -0.09000
C1364       C  0.38724050  0.78773867  0.59702179    -0.06400
C1365       C  0.40991768  0.81965224  0.61367871    -0.00400
C1366       C  0.41504360  0.82165152  0.65704882    -0.08900
C1367       C  0.43967190  0.85360913  0.68055736     0.61500
H1368       H  0.40083457  0.79264519  0.71276683     0.12200
H1369       H  0.38181703  0.78510810  0.56507202     0.12200
C1370       C  0.34819458  0.72523328  0.59902835     0.61700
F1371       F  0.43555670  0.84879711  0.72209513    -0.23500
F1372       F  0.43549324  0.88084487  0.67166523    -0.20800
F1373       F  0.47227686  0.86196571  0.67256215    -0.20500
F1374       F  0.32221616  0.72709990  0.58023413    -0.20500
F1375       F  0.33468537  0.69732371  0.62443512    -0.20900
F1376       F  0.36679151  0.72042340  0.56981894    -0.23500
C1377       C  0.20544133  0.58992731  0.90102973    -0.06400
C1378       C  0.17536358  0.58739194  0.88603550    -0.00400
C1379       C  0.17565985  0.59959001  0.84556159    -0.09000
C1380       C  0.20632871  0.61728502  0.82516651    -0.06400
C1381       C  0.23568226  0.61967600  0.84045747    -0.00400
C1382       C  0.23552239  0.60562006  0.87868539    -0.08900
C1383       C  0.26717642  0.60770766  0.89576553     0.61500
H1384       H  0.20539229  0.57834761  0.92963847     0.12200
H1385       H  0.20706146  0.62779997  0.79527575     0.12200
C1386       C  0.14552090  0.59568647  0.82121698     0.61700
F1387       F  0.26262973  0.59496121  0.93489491    -0.23500
F1388       F  0.29261154  0.64112336  0.89640188    -0.20800
F1389       F  0.27680974  0.58935409  0.87183008    -0.20500
F1390       F  0.11485725  0.57063506  0.83499244    -0.20500
F1391       F  0.14793193  0.58755640  0.78152276    -0.20900
F1392       F  0.14580284  0.62614578  0.82104757    -0.23500
C1393       C  0.36390359  0.77269518  0.85705980    -0.06400
C1394       C  0.38444494  0.76502989  0.83345260    -0.00400
C1395       C  0.41946871  0.78774879  0.83328866    -0.09000
C1396       C  0.43210207  0.81772650  0.85542768    -0.06400
C1397       C  0.41221972  0.82491362  0.88155424    -0.00400
C1398       C  0.37671960  0.80209622  0.88088761    -0.08900
C1399       C  0.35010630  0.80652911  0.90285568     0.61500
H1400       H  0.33704410  0.75547947  0.85649554     0.12200
H1401       H  0.45795458  0.83622759  0.85054929     0.12200
C1402       C  0.44390758  0.78120867  0.80939576     0.61700
F1403       F  0.32693065  0.80513099  0.87486296    -0.23500
F1404       F  0.36188176  0.83640845  0.92342125    -0.20800
F1405       F  0.33375625  0.78025667  0.93034728    -0.20500
F1406       F  0.43519569  0.77688925  0.76883235    -0.20500
F1407       F  0.44346478  0.75258880  0.82452869    -0.20900
F1408       F  0.47662727  0.80762031  0.81217672    -0.23500
C1409       C  0.21585137  0.58076439  0.65828527    -0.06400
C1410       C  0.23191316  0.61540699  0.66737358    -0.00400
C1411       C  0.22111618  0.63589036  0.64675447    -0.09000
C1412       C  0.19257959  0.62011504  0.62178662    -0.06400
C1413       C  0.17388684  0.58476570  0.61672198    -0.00400
C1414       C  0.18863803  0.56550208  0.63119221    -0.08900
C1415       C  0.17864298  0.52966731  0.61846182     0.61500
H1416       H  0.22514800  0.56526166  0.67181454     0.12200
H1417       H  0.18488545  0.63581576  0.60567200     0.12200
C1418       C  0.23931302  0.67427060  0.65017013     0.61700
F1419       F  0.15740783  0.51824699  0.58551682    -0.23500
F1420       F  0.16373271  0.50773777  0.65077073    -0.20800
F1421       F  0.20713911  0.52867342  0.60763452    -0.20500
F1422       F  0.27318847  0.68740312  0.64377281    -0.20500
F1423       F  0.23411337  0.68338834  0.68810138    -0.20900
F1424       F  0.22817662  0.68897672  0.62172973    -0.23500
C1425       C  0.10344364  0.87080106  0.63404613    -0.06400
C1426       C  0.11865704  0.88672019  0.67050368    -0.00400
C1427       C  0.11572383  0.91462907  0.68353939    -0.09000
C1428       C  0.09888786  0.92629141  0.65851822    -0.06400
C1429       C  0.08601578  0.91243093  0.62007732    -0.00400
C1430       C  0.08546136  0.88177537  0.60963620    -0.08900
C1431       C  0.06545119  0.85855720  0.57484351     0.61500
H1432       H  0.10453959  0.84851160  0.62533008     0.12200
H1433       H  0.09473364  0.94593812  0.67000904     0.12200
C1434       C  0.12873650  0.93131080  0.72449878     0.61700
F1435       F  0.05222777  0.82505258  0.58657614    -0.23500
F1436       F  0.08635560  0.86461592  0.54212636    -0.20800
F1437       F  0.03862460  0.86219185  0.56296488    -0.20500
F1438       F  0.16329279  0.94665859  0.72570117    -0.20500
F1439       F  0.11499199  0.90726180  0.75494397    -0.20900
F1440       F  0.12042006  0.95600013  0.73228416    -0.23500
C1441       C  0.27182889  0.86270234  0.64596983    -0.06400
C1442       C  0.26389618  0.88455692  0.66673487    -0.00400
C1443       C  0.28408449  0.91993214  0.65994356    -0.09000
C1444       C  0.31145401  0.93170513  0.63333920    -0.06400
C1445       C  0.32162063  0.91022656  0.61549101    -0.00400
C1446       C  0.29932510  0.87453109  0.61929426    -0.08900
C1447       C  0.30228467  0.84715932  0.59666267     0.61500
H1448       H  0.25591592  0.83563657  0.65023575     0.12200
H1449       H  0.32491520  0.95835361  0.62616603     0.12200
C1450       C  0.27815865  0.94576514  0.68173736     0.61700
F1451       F  0.27131324  0.82416074  0.58076331    -0.23500
F1452       F  0.31209959  0.83024034  0.62348854    -0.20800
F1453       F  0.32439955  0.85903847  0.56468148    -0.20500
F1454       F  0.27719722  0.94038032  0.72316719    -0.20500
F1455       F  0.24830272  0.94311384  0.66884627    -0.20900
F1456       F  0.30337506  0.97866409  0.67428640    -0.23500
C1457       C  0.13964656  0.91316361  0.85500453    -0.06400
C1458       C  0.11936955  0.87987908  0.84126500    -0.00400
C1459       C  0.08633314  0.86075846  0.85712683    -0.09000
C1460       C  0.07379914  0.87718888  0.88138290    -0.06400
C1461       C  0.09282431  0.91184894  0.89101917    -0.00400
C1462       C  0.12780061  0.92865388  0.88182833    -0.08900
C1463       C  0.15446952  0.96190852  0.89995502     0.61500
H1464       H  0.16554450  0.92736359  0.84523781     0.12200
H1465       H  0.04856208  0.86267382  0.89294319     0.12200
C1466       C  0.06417766  0.82307638  0.84946182     0.61700
F1467       F  0.18087617  0.95814719  0.91385384    -0.23500
F1468       F  0.14343074  0.97233125  0.93254593    -0.20800
F1469       F  0.16639475  0.98686000  0.87034716    -0.20500
F1470       F  0.08214555  0.80667043  0.85677730    -0.20500
F1471       F  0.05268958  0.81777795  0.80990235    -0.20900
F1472       F  0.03645411  0.80856363  0.87463219    -0.23500
C1473       C  0.29260341  0.88049501  0.90005597    -0.06400
C1474       C  0.32341135  0.90602405  0.88351987    -0.00400
C1475       C  0.32410753  0.91282782  0.84078248    -0.09000
C1476       C  0.29375986  0.89835378  0.81927053    -0.06400
C1477       C  0.26339261  0.87416132  0.83630690    -0.00400
C1478       C  0.26274558  0.86408335  0.87698525    -0.08900
C1479       C  0.23063503  0.83643238  0.89593312     0.61500
H1480       H  0.29179994  0.87202265  0.93077123     0.12200
H1481       H  0.29400220  0.90499485  0.78753231     0.12200
C1482       C  0.35493157  0.93426210  0.81441457     0.61700
F1483       F  0.23460524  0.83201632  0.93675243    -0.23500
F1484       F  0.22085848  0.80611474  0.87667667    -0.20800
F1485       F  0.20555017  0.84457094  0.89199736    -0.20500
F1486       F  0.38538746  0.94420426  0.83257686    -0.20500
F1487       F  0.35436700  0.96289542  0.80139251    -0.20900
F1488       F  0.35354256  0.91574729  0.78072612    -0.23500
C1489       C  0.12139962  0.69976485  0.60925113    -0.06400
C1490       C  0.08635067  0.68283392  0.60358057    -0.00400
C1491       C  0.06925194  0.69982736  0.61687249    -0.09000
C1492       C  0.08562820  0.72681070  0.64421896    -0.06400
C1493       C  0.11951485  0.74016435  0.65546926    -0.00400
C1494       C  0.13830839  0.72748321  0.63550955    -0.08900
C1495       C  0.17576575  0.74197026  0.64205118     0.61500
H1496       H  0.13568324  0.69049684  0.59355030     0.12200
H1497       H  0.07152730  0.73787759  0.65648544     0.12200
C1498       C  0.03482094  0.69240970  0.60222876     0.61700
F1499       F  0.18868831  0.72660273  0.61785137    -0.23500
F1500       F  0.18191125  0.73703636  0.68190538    -0.20800
F1501       F  0.19273191  0.77612850  0.63261287    -0.20500
F1502       F  0.01190820  0.67804316  0.63341738    -0.20500
F1503       F  0.02342430  0.67144405  0.56902406    -0.20900
F1504       F  0.03635011  0.72242924  0.59073186    -0.23500
C1505       C  0.13056264  0.72489033  0.85575899    -0.06400
C1506       C  0.10986328  0.73144969  0.83056536    -0.00400
C1507       C  0.07467911  0.70941578  0.83191534    -0.09000
C1508       C  0.06181247  0.68112083  0.85783335    -0.06400
C1509       C  0.08255748  0.67292367  0.88119787    -0.00400
C1510       C  0.11772618  0.69714603  0.88261173    -0.08900
C1511       C  0.14361226  0.69564305  0.91044606     0.61500
H1512       H  0.15738207  0.74227193  0.85500647     0.12200
H1513       H  0.03498842  0.66562908  0.86034150     0.12200
C1514       C  0.05051911  0.71455315  0.80509319     0.61700
F1515       F  0.16193700  0.68479465  0.88853130    -0.23500
F1516       F  0.13014390  0.67495687  0.94388077    -0.20800
F1517       F  0.16543915  0.72765121  0.92508526    -0.20500
F1518       F  0.06036242  0.71778100  0.76501910    -0.20500
F1519       F  0.04985437  0.74320754  0.81681466    -0.20900
F1520       F  0.01810686  0.68757263  0.80762313    -0.23500
Fe1521     Fe  0.68925383  0.30688875  0.24892508     1.65800
Fe1522     Fe  0.61746047  0.31048189  0.24860291     1.73200
Fe1523     Fe  0.69248422  0.38275192  0.25607845     1.54400
O1524       O  0.72877638  0.38218891  0.29241269    -0.82300
O1525       O  0.61837680  0.34109989  0.20219983    -0.80600
O1526       O  0.71711283  0.32890224  0.30062759    -0.84800
O1527       O  0.72762170  0.34247579  0.21253762    -0.79600
O1528       O  0.66651958  0.38248570  0.30744342    -0.81400
O1529       O  0.61327627  0.27534089  0.20538968    -0.84100
C1530       C  0.73532209  0.37071207  0.19575048     0.96600
C1531       C  0.73422058  0.36014533  0.30883912     1.04100
O1532       O  0.66637837  0.33329754  0.25137654    -1.13100
O1533       O  0.61169456  0.27742158  0.29459842    -0.75600
O1534       O  0.65379422  0.26761675  0.28449067    -0.79000
O1535       O  0.72051714  0.38691453  0.20514992    -0.79700
C1536       C  0.62598907  0.26020858  0.30086487     0.95500
O1537       O  0.66396192  0.28217471  0.19700175    -0.77700
O1538       O  0.61485949  0.34244895  0.29157357    -0.82900
C1539       C  0.63403770  0.37308622  0.20007162     0.98200
C1540       C  0.63499691  0.36723714  0.31348087     1.04100
O1541       O  0.66037333  0.39139786  0.22033868    -0.78500
C1542       C  0.63331070  0.26832639  0.18706517     1.02400
C1543       C  0.63841431  0.07071054  0.09832494     0.85900
C1544       C  0.61235312  0.03533326  0.11030297    -0.54300
C1545       C  0.58545475  0.01908610  0.08440846     0.08800
C1546       C  0.58444724  0.04450435  0.05261824     0.19800
C1547       C  0.64510366  0.07088585  0.05311067    -0.55100
C1548       C  0.61749645  0.05766192  0.02850130     0.08900
C1549       C  0.61787627  0.08797543  0.10224476    -0.54600
C1550       C  0.59025184  0.07628889  0.07756495     0.09500
H1551       H  0.61612628  0.02455341  0.13776893     0.14000
H1552       H  0.56133734  0.03337145  0.03407564    -0.00200
H1553       H  0.67056799  0.08137168  0.04247678     0.14300
H1554       H  0.62329477  0.10564041  0.12639180     0.14100
C1555       C  0.93132089  0.35856490  0.40393963     0.85900
C1556       C  0.96896027  0.37596208  0.40558886    -0.54300
C1557       C  0.98485179  0.40608479  0.42560980     0.08800
C1558       C  0.95923328  0.41392154  0.44746548     0.19800
C1559       C  0.92246960  0.35283035  0.44906859    -0.55100
C1560       C  0.93746861  0.38146374  0.47273403     0.08900
C1561       C  0.92451749  0.38604882  0.38897431    -0.54600
C1562       C  0.93441022  0.41306248  0.41442025     0.09500
H1563       H  0.98118128  0.36191107  0.39794897     0.14000
H1564       H  0.97149470  0.43772340  0.46486937    -0.00200
H1565       H  0.90648348  0.32743453  0.46036139     0.14300
H1566       H  0.90968318  0.38185499  0.36180966     0.14100
C1567       C  0.64764859  0.07255838  0.41634183     0.85900
C1568       C  0.62705162  0.08938227  0.41028670    -0.54300
C1569       C  0.59593136  0.07397927  0.42791057     0.08800
C1570       C  0.58935867  0.04231413  0.45347257     0.19800
C1571       C  0.65032734  0.07146141  0.46263560    -0.55100
C1572       C  0.61996985  0.05602604  0.48273137     0.08900
C1573       C  0.62564895  0.03582962  0.40569161    -0.54600
C1574       C  0.59506756  0.01890624  0.42448509     0.09500
H1575       H  0.63862434  0.11320862  0.39412557     0.14000
H1576       H  0.56457437  0.02954455  0.46836685    -0.00200
H1577       H  0.67400950  0.08217173  0.47806201     0.14300
H1578       H  0.63597187  0.02476550  0.38582839     0.14100
C1579       C  0.57684023  0.42887735  0.41738881     0.85900
C1580       C  0.58857223  0.46467389  0.40354628    -0.54300
C1581       C  0.57450231  0.48114829  0.42304577     0.08800
C1582       C  0.54637435  0.45748171  0.45342846     0.19800
C1583       C  0.57951061  0.42985262  0.46351204    -0.55100
C1584       C  0.56398102  0.44490455  0.48299365     0.08900
C1585       C  0.53963571  0.41259327  0.40854633    -0.54600
C1586       C  0.52240655  0.42535242  0.42901746     0.09500
H1587       H  0.60733817  0.47536543  0.38022045     0.14000
H1588       H  0.53348826  0.46950440  0.46813561    -0.00200
H1589       H  0.59213844  0.41816710  0.47855464     0.14300
H1590       H  0.52885821  0.39412512  0.38477498     0.14100
C1591       C  0.57156620  0.43028027  0.09571587     0.85900
C1592       C  0.53404756  0.41146631  0.09894740    -0.54300
C1593       C  0.51725624  0.42361647  0.07597219     0.08800
C1594       C  0.54211032  0.45679930  0.05245259     0.19800
C1595       C  0.58016441  0.43415559  0.05087046    -0.55100
C1596       C  0.56365609  0.44600719  0.02717318     0.08900
C1597       C  0.58124075  0.46584678  0.10739074    -0.54600
C1598       C  0.56750067  0.48152750  0.08492317     0.09500
H1599       H  0.52286618  0.38999119  0.11922865     0.14000
H1600       H  0.52947472  0.46785294  0.03453421    -0.00200
H1601       H  0.59874495  0.42858846  0.03960256     0.14300
H1602       H  0.60095590  0.47806047  0.12916791     0.14100
C1603       C  0.92374952  0.35294350  0.08609154     0.85900
C1604       C  0.90967819  0.37551696  0.09537887    -0.54300
C1605       C  0.92450608  0.40669773  0.07708179     0.08800
C1606       C  0.95347552  0.41193651  0.04835451     0.19800
C1607       C  0.92118068  0.35026835  0.03983644    -0.55100
C1608       C  0.93656845  0.38079747  0.01923458     0.08900
C1609       C  0.96097117  0.37335317  0.09270122    -0.54600
C1610       C  0.97754370  0.40496077  0.07511394     0.09500
H1611       H  0.88753292  0.36505356  0.11397513     0.14000
H1612       H  0.96604210  0.43692345  0.03300134    -0.00200
H1613       H  0.90972666  0.32633776  0.02472579     0.14300
H1614       H  0.97300481  0.36045388  0.10597940     0.14100
C1615       C  0.85489709  0.42646071  0.09113834     0.85900
C1616       C  0.87548197  0.46407104  0.09724226    -0.54300
C1617       C  0.90446082  0.48095832  0.07512210     0.08800
C1618       C  0.91151922  0.45606175  0.05023622     0.19800
C1619       C  0.85096206  0.42150941  0.04524655    -0.55100
C1620       C  0.88023200  0.43677197  0.02315826     0.08900
C1621       C  0.88010784  0.41634584  0.10465074    -0.54600
C1622       C  0.90846009  0.42844501  0.08109330     0.09500
H1623       H  0.86864743  0.47522814  0.12130114     0.14000
H1624       H  0.93567964  0.46880596  0.03388212    -0.00200
H1625       H  0.82614687  0.40673916  0.03250547     0.14300
H1626       H  0.87491729  0.40020435  0.13090366     0.14100
C1627       C  0.56709497  0.13740351  0.40235388     0.85900
C1628       C  0.53210274  0.10977138  0.39070731    -0.54300
C1629       C  0.51678506  0.08323872  0.41768542     0.08800
C1630       C  0.54251987  0.08329219  0.44906563     0.19800
C1631       C  0.56555674  0.14395940  0.44754567    -0.55100
C1632       C  0.55385184  0.11621842  0.47268828     0.08900
C1633       C  0.58511897  0.11792702  0.39870885    -0.54600
C1634       C  0.57452214  0.09044614  0.42409234     0.09500
H1635       H  0.51963744  0.11113859  0.36342397     0.14000
H1636       H  0.53229193  0.06000136  0.46779802    -0.00200
H1637       H  0.57423049  0.16945896  0.45778467     0.14300
H1638       H  0.60434419  0.12588326  0.37590980     0.14100
C1639       C  0.92885389  0.07200556  0.40773538     0.85900
C1640       C  0.91300490  0.03465332  0.39998015    -0.54300
C1641       C  0.92462677  0.01740552  0.42277590     0.08800
C1642       C  0.95553104  0.04176430  0.44935573     0.19800
C1643       C  0.92869737  0.07643854  0.45327090    -0.55100
C1644       C  0.94218495  0.06066737  0.47601475     0.08900
C1645       C  0.96576237  0.08573884  0.39992103    -0.54600
C1646       C  0.98068795  0.06997743  0.41972881     0.09500
H1647       H  0.89318992  0.02357785  0.37775780     0.14000
H1648       H  0.96672009  0.02891029  0.46661305    -0.00200
H1649       H  0.91929350  0.09199702  0.46533031     0.14300
H1650       H  0.97988675  0.11018582  0.38550762     0.14100
C1651       C  0.85513892  0.42166792  0.40983813     0.85900
C1652       C  0.87937277  0.40972778  0.40059839    -0.54300
C1653       C  0.90977217  0.42574610  0.42007843     0.08800
C1654       C  0.91207051  0.45327066  0.44999039     0.19800
C1655       C  0.85110236  0.41789813  0.45587961    -0.55100
C1656       C  0.88043673  0.43443044  0.47770165     0.08900
C1657       C  0.87407445  0.45967309  0.40399802    -0.54600
C1658       C  0.90424550  0.47724869  0.42405635     0.09500
H1659       H  0.87107511  0.38878395  0.38003456     0.14000
H1660       H  0.93623862  0.46657195  0.46635390    -0.00200
H1661       H  0.82687252  0.40528992  0.46991747     0.14300
H1662       H  0.86214239  0.47070491  0.38635483     0.14100
C1663       C  0.92962501  0.07293550  0.09337469     0.85900
C1664       C  0.96594696  0.08659287  0.10436376    -0.54300
C1665       C  0.98281401  0.07405296  0.08295650     0.08800
C1666       C  0.95897194  0.04496314  0.05367849     0.19800
C1667       C  0.92929425  0.07660975  0.04720022    -0.55100
C1668       C  0.94432756  0.06196635  0.02570742     0.08900
C1669       C  0.91302521  0.03531207  0.09822596    -0.54600
C1670       C  0.92792470  0.01943718  0.07933854     0.09500
H1671       H  0.97696384  0.10675491  0.12614950     0.14000
H1672       H  0.97122074  0.03291281  0.03749255    -0.00200
H1673       H  0.91495235  0.08666361  0.03307805     0.14300
H1674       H  0.88870346  0.02274207  0.11246263     0.14100
C1675       C  0.56962821  0.14887890  0.08263012     0.85900
C1676       C  0.58640287  0.12812276  0.09185761    -0.54300
C1677       C  0.57258979  0.09676372  0.07398957     0.08800
C1678       C  0.54111758  0.08895248  0.04810169     0.19800
C1679       C  0.56857065  0.15002528  0.03670981    -0.55100
C1680       C  0.55415539  0.11917684  0.01779927     0.08900
C1681       C  0.53409090  0.12500876  0.09644848    -0.54600
C1682       C  0.51752992  0.09420582  0.07726670     0.09500
H1683       H  0.60799702  0.13864463  0.11128558     0.14000
H1684       H  0.52908784  0.06375309  0.03379384    -0.00200
H1685       H  0.58004844  0.17425858  0.02133574     0.14300
H1686       H  0.52376551  0.13302303  0.12009744     0.14100
Fe1687     Fe  0.88007483  0.19061805  0.24433548     1.65800
Fe1688     Fe  0.80685819  0.11606716  0.25114749     1.73200
Fe1689     Fe  0.80672377  0.19043018  0.25454026     1.54400
O1690       O  0.84254855  0.22876275  0.28926019    -0.82300
O1691       O  0.77562767  0.11363623  0.20427004    -0.80600
O1692       O  0.88652348  0.22124348  0.29314179    -0.84800
O1693       O  0.87995338  0.22578691  0.20498650    -0.79600
O1694       O  0.78320784  0.16511872  0.30722297    -0.81400
O1695       O  0.83773290  0.11127247  0.20951981    -0.84100
C1696       C  0.85855359  0.23283002  0.19054733     0.96600
C1697       C  0.87130227  0.23680776  0.30300735     1.04100
O1698       O  0.83131072  0.16575593  0.24991959    -1.13100
O1699       O  0.83625733  0.11453123  0.29801952    -0.75600
O1700       O  0.88622627  0.15878605  0.28343932    -0.79000
O1701       O  0.82826348  0.21853283  0.20234047    -0.79700
C1702       C  0.86792269  0.13151057  0.30266540     0.95500
O1703       O  0.87948446  0.16281407  0.19477175    -0.77700
O1704       O  0.77203764  0.11286571  0.29296472    -0.82900
C1705       C  0.75940860  0.12937117  0.20041053     0.98200
C1706       C  0.76712789  0.13342684  0.31338664     1.04100
O1707       O  0.76704289  0.15570942  0.22051260    -0.78500
C1708       C  0.86367676  0.13109325  0.18927356     1.02400
C1709       C  0.88294260  0.09036891  0.17912206    -0.06400
C1710       C  0.87822031  0.11591792  0.16222163    -0.00400
C1711       C  0.89022468  0.12783909  0.12275559    -0.09000
C1712       C  0.90740430  0.11412477  0.10200798    -0.06400
C1713       C  0.91292014  0.08868434  0.11915622    -0.00400
C1714       C  0.90233900  0.07856348  0.16025909    -0.08900
C1715       C  0.91024414  0.05576371  0.18684935     0.61500
H1716       H  0.87323841  0.08110489  0.20926731     0.12200
H1717       H  0.91761873  0.12450322  0.07262618     0.12200
C1718       C  0.88336430  0.15357971  0.10183330     0.61700
F1719       F  0.91856473  0.06890785  0.22555883    -0.23500
F1720       F  0.93687349  0.05268368  0.17353728    -0.20800
F1721       F  0.88211739  0.02396903  0.18946447    -0.20500
F1722       F  0.90115645  0.18460986  0.12052597    -0.20500
F1723       F  0.84946331  0.14273046  0.10370853    -0.20900
F1724       F  0.89250769  0.15784738  0.06139253    -0.23500
C1725       C  0.86730223  0.10018517  0.36488532    -0.06400
C1726       C  0.88448562  0.11835033  0.33018016    -0.00400
C1727       C  0.91548351  0.12063886  0.32031622    -0.09000
C1728       C  0.92755229  0.10410940  0.34530683    -0.06400
C1729       C  0.91183790  0.08763790  0.38185495    -0.00400
C1730       C  0.87956718  0.08372801  0.39028697    -0.08900
C1731       C  0.85627265  0.06260241  0.42463978     0.61500
H1732       H  0.84338519  0.09821063  0.37177716     0.12200
H1733       H  0.94926990  0.10332004  0.33501752     0.12200
C1734       C  0.93627394  0.14027887  0.28359628     0.61700
F1735       F  0.82350117  0.04539321  0.41076792    -0.23500
F1736       F  0.85832429  0.08386475  0.45546402    -0.20800
F1737       F  0.86291453  0.03841231  0.44018800    -0.20500
F1738       F  0.94930653  0.17456265  0.28963992    -0.20500
F1739       F  0.91687367  0.13064343  0.24905629    -0.20900
F1740       F  0.96277765  0.13476883  0.27675953    -0.23500
C1741       C  0.89136694  0.29326868  0.18007451    -0.06400
C1742       C  0.87129690  0.26178670  0.16242751    -0.00400
C1743       C  0.86793536  0.25926713  0.11994494    -0.09000
C1744       C  0.88526016  0.28894528  0.09638991    -0.06400
C1745       C  0.90682974  0.32101728  0.11356516    -0.00400
C1746       C  0.90982555  0.32302347  0.15719912    -0.08900
C1747       C  0.93335295  0.35500819  0.18136378     0.61500
H1748       H  0.89345093  0.29390074  0.21279360     0.12200
H1749       H  0.88121048  0.28619250  0.06419073     0.12200
C1750       C  0.84688796  0.22624030  0.09767874     0.61700
F1751       F  0.92737767  0.35021554  0.22265475    -0.23500
F1752       F  0.92961991  0.38225689  0.17093669    -0.20800
F1753       F  0.96626427  0.36333767  0.17579720    -0.20500
F1754       F  0.82222359  0.22821783  0.07571018    -0.20500
F1755       F  0.83151815  0.19840067  0.12313052    -0.20900
F1756       F  0.86710603  0.22120684  0.07116018    -0.23500
C1757       C  0.71156771  0.10792123  0.40708662    -0.06400
C1758       C  0.67925266  0.08950387  0.38939549    -0.00400
C1759       C  0.67718505  0.08753944  0.34578860    -0.09000
C1760       C  0.70690849  0.10119115  0.32340567    -0.06400
C1761       C  0.73839339  0.11911766  0.34131285    -0.00400
C1762       C  0.74113228  0.12311833  0.38362821    -0.08900
C1763       C  0.77522063  0.14302080  0.40363821     0.61500
H1764       H  0.71418575  0.11148878  0.43928956     0.12200
H1765       H  0.70552333  0.09879646  0.29063255     0.12200
C1766       C  0.64561470  0.07168816  0.31919137     0.61700
F1767       F  0.77291044  0.14202598  0.44547754    -0.23500
F1768       F  0.79029443  0.17646831  0.39120385    -0.20800
F1769       F  0.79524949  0.12972881  0.39273379    -0.20500
F1770       F  0.64855867  0.09503290  0.28999310    -0.20500
F1771       F  0.61574742  0.06149984  0.33867126    -0.20900
F1772       F  0.64330480  0.04384381  0.29981255    -0.23500
C1773       C  0.86707960  0.27224760  0.35623108    -0.06400
C1774       C  0.88763079  0.26642028  0.33024020    -0.00400
C1775       C  0.92175177  0.29146818  0.32628718    -0.09000
C1776       C  0.93379548  0.32133720  0.34859465    -0.06400
C1777       C  0.91413656  0.32653405  0.37735602    -0.00400
C1778       C  0.87909915  0.30213797  0.37879328    -0.08900
C1779       C  0.85217462  0.30551957  0.40146769     0.61500
H1780       H  0.84065122  0.25344622  0.35793010     0.12200
H1781       H  0.95883852  0.34136036  0.34207862     0.12200
C1782       C  0.94552276  0.28741549  0.29801132     0.61700
F1783       F  0.82678822  0.30032214  0.37468376    -0.23500
F1784       F  0.86300499  0.33654109  0.41886263    -0.20800
F1785       F  0.83884389  0.28100599  0.43153612    -0.20500
F1786       F  0.93304956  0.28167461  0.25891358    -0.20500
F1787       F  0.94923819  0.26054537  0.31100734    -0.20900
F1788       F  0.97712651  0.31586631  0.29713511    -0.23500
C1789       C  0.71672745  0.08302272  0.15804023    -0.06400
C1790       C  0.72996429  0.11613452  0.17242278    -0.00400
C1791       C  0.71484557  0.13534765  0.15949684    -0.09000
C1792       C  0.68658399  0.11994789  0.13417588    -0.06400
C1793       C  0.67135416  0.08574733  0.12270945    -0.00400
C1794       C  0.68891169  0.06796099  0.13187447    -0.08900
C1795       C  0.68049680  0.03341109  0.11564516     0.61500
H1796       H  0.72857348  0.06853064  0.16699578     0.12200
H1797       H  0.67655464  0.13525640  0.12259665     0.12200
C1798       C  0.72770967  0.17190819  0.17201020     0.61700
F1799       F  0.65997695  0.02346283  0.08204001    -0.23500
F1800       F  0.66557561  0.00944354  0.14605333    -0.20800
F1801       F  0.70970085  0.03409269  0.10415568    -0.20500
F1802       F  0.76125155  0.19159968  0.16220308    -0.20500
F1803       F  0.72325999  0.17329496  0.21322238    -0.20900
F1804       F  0.71078372  0.18603646  0.15270269    -0.23500
C1805       C  0.61237825  0.37821209  0.13386607    -0.06400
C1806       C  0.62016184  0.38932959  0.17381036    -0.00400
C1807       C  0.60954885  0.41114855  0.18950824    -0.09000
C1808       C  0.59343411  0.42294336  0.16334976    -0.06400
C1809       C  0.58741135  0.41379438  0.12206812    -0.00400
C1810       C  0.59381786  0.38780289  0.10862717    -0.08900
C1811       C  0.57924664  0.36666198  0.07063307     0.61500
H1812       H  0.61894586  0.35984371  0.12320805     0.12200
H1813       H  0.58432958  0.43868056  0.17573319     0.12200
C1814       C  0.61322460  0.42027004  0.23420031     0.61700
F1815       F  0.56962331  0.33319157  0.07889922    -0.23500
F1816       F  0.60331555  0.37821332  0.04055817    -0.20800
F1817       F  0.55095066  0.36672229  0.05668299    -0.20500
F1818       F  0.64671679  0.43791929  0.24491118    -0.20500
F1819       F  0.59694445  0.39103632  0.25727789    -0.20900
F1820       F  0.59940284  0.44027521  0.24340720    -0.23500
C1821       C  0.77635375  0.36396868  0.15359518    -0.06400
C1822       C  0.76307354  0.38467202  0.16481629    -0.00400
C1823       C  0.77693397  0.41729535  0.14641092    -0.09000
C1824       C  0.80490567  0.42839639  0.12067055    -0.06400
C1825       C  0.82073594  0.40918197  0.11353233    -0.00400
C1826       C  0.80345904  0.37472247  0.12667621    -0.08900
C1827       C  0.81127829  0.34760160  0.11314246     0.61500
H1828       H  0.76499589  0.33837180  0.16547196     0.12200
H1829       H  0.81493351  0.45283867  0.10608056     0.12200
C1830       C  0.76329748  0.44105479  0.15400594     0.61700
F1831       F  0.78170528  0.31799953  0.10496224    -0.23500
F1832       F  0.82777570  0.34105503  0.14399329    -0.20800
F1833       F  0.83016177  0.35619587  0.07821370    -0.20500
F1834       F  0.76650732  0.44936462  0.19460845    -0.20500
F1835       F  0.72996386  0.42572543  0.14254342    -0.20900
F1836       F  0.78036161  0.47099058  0.13216392    -0.23500
C1837       C  0.64158540  0.41312359  0.36029701    -0.06400
C1838       C  0.62112340  0.38011239  0.34561168    -0.00400
C1839       C  0.58818597  0.36089116  0.36177959    -0.09000
C1840       C  0.57587253  0.37703224  0.38702620    -0.06400
C1841       C  0.59487667  0.41162114  0.39716272    -0.00400
C1842       C  0.62983468  0.42840290  0.38775874    -0.08900
C1843       C  0.65653179  0.46149009  0.40623798     0.61500
H1844       H  0.66749291  0.42734324  0.35058315     0.12200
H1845       H  0.55076275  0.36232826  0.39886432     0.12200
C1846       C  0.56583509  0.32337286  0.35327402     0.61700
F1847       F  0.68245432  0.45724288  0.42089124    -0.23500
F1848       F  0.64524552  0.47219753  0.43831489    -0.20800
F1849       F  0.66916803  0.48652240  0.37673231    -0.20500
F1850       F  0.58362875  0.30665312  0.35963001    -0.20500
F1851       F  0.55426770  0.31881465  0.31377482    -0.20900
F1852       F  0.53815191  0.30857369  0.37849344    -0.23500
C1853       C  0.79260284  0.37884891  0.39917701    -0.06400
C1854       C  0.82370035  0.40370441  0.38250790    -0.00400
C1855       C  0.82470951  0.41052404  0.33972297    -0.09000
C1856       C  0.79451572  0.39588910  0.31795233    -0.06400
C1857       C  0.76391945  0.37264198  0.33530224    -0.00400
C1858       C  0.76269427  0.36336957  0.37630711    -0.08900
C1859       C  0.72971135  0.33815031  0.39595787     0.61500
H1860       H  0.79133032  0.37053384  0.43001921     0.12200
H1861       H  0.79483241  0.40236775  0.28614390     0.12200
C1862       C  0.85563596  0.43356023  0.31420425     0.61700
F1863       F  0.73327442  0.33444113  0.43706268    -0.23500
F1864       F  0.71735825  0.30685042  0.37809878    -0.20800
F1865       F  0.70671222  0.34903206  0.39099852    -0.20500
F1866       F  0.88593321  0.44172678  0.33165413    -0.20500
F1867       F  0.85549659  0.46320183  0.30544231    -0.20900
F1868       F  0.85422554  0.41775438  0.27803386    -0.23500
C1869       C  0.62189077  0.20124048  0.10859044    -0.06400
C1870       C  0.58699022  0.18465878  0.10197219    -0.00400
C1871       C  0.57007279  0.20210167  0.11436023    -0.09000
C1872       C  0.58605490  0.22889418  0.14211665    -0.06400
C1873       C  0.61973190  0.24207011  0.15409532    -0.00400
C1874       C  0.63863592  0.22917685  0.13467354    -0.08900
C1875       C  0.67606734  0.24366173  0.14156009     0.61500
H1876       H  0.63616253  0.19155841  0.09371376     0.12200
H1877       H  0.57196181  0.24015751  0.15384562     0.12200
C1878       C  0.53654615  0.19566344  0.09758062     0.61700
F1879       F  0.68910833  0.22833042  0.11750782    -0.23500
F1880       F  0.68200455  0.23871080  0.18149706    -0.20800
F1881       F  0.69313495  0.27781986  0.13211433    -0.20500
F1882       F  0.51202498  0.18020849  0.12686383    -0.20500
F1883       F  0.52692859  0.17612216  0.06309966    -0.20900
F1884       F  0.53886124  0.22622755  0.08706406    -0.23500
C1885       C  0.63075823  0.22332973  0.35251397    -0.06400
C1886       C  0.60987359  0.23017709  0.32812500    -0.00400
C1887       C  0.57477353  0.20779099  0.32940267    -0.09000
C1888       C  0.56216438  0.17895881  0.35460862    -0.06400
C1889       C  0.58311494  0.17080251  0.37778497    -0.00400
C1890       C  0.61827489  0.19522593  0.37880414    -0.08900
C1891       C  0.64476761  0.19431203  0.40604388     0.61500
H1892       H  0.65753628  0.24095345  0.35185450     0.12200
H1893       H  0.53537840  0.16324731  0.35695787     0.12200
C1894       C  0.55048833  0.21332593  0.30335808     0.61700
F1895       F  0.66542965  0.18744023  0.38262481    -0.23500
F1896       F  0.63231702  0.17118868  0.43737237    -0.20800
F1897       F  0.66407166  0.22572344  0.42361213    -0.20500
F1898       F  0.56015286  0.21723298  0.26315392    -0.20500
F1899       F  0.54979581  0.24174287  0.31609701    -0.20900
F1900       F  0.51815966  0.18628702  0.30576873    -0.23500
Fe1901     Fe  0.68973516  0.30740211  0.74973825     1.65800
Fe1902     Fe  0.61719499  0.31001271  0.74847824     1.73200
Fe1903     Fe  0.69201872  0.38273784  0.75386627     1.54400
O1904       O  0.72916623  0.38377190  0.79014809    -0.82300
O1905       O  0.61680476  0.33983951  0.70193072    -0.80600
O1906       O  0.71758606  0.33082065  0.80091773    -0.84800
O1907       O  0.72783002  0.34250218  0.71254630    -0.79600
O1908       O  0.66649341  0.38296591  0.80521474    -0.81400
O1909       O  0.61367042  0.27509479  0.70528924    -0.84100
C1910       C  0.73485932  0.37015777  0.69467690     0.96600
C1911       C  0.73470840  0.36227513  0.80788728     1.04100
O1912       O  0.66623055  0.33327170  0.75077874    -1.13100
O1913       O  0.61200493  0.27753932  0.79464498    -0.75600
O1914       O  0.65487762  0.26873390  0.78633111    -0.79000
O1915       O  0.71929815  0.38584435  0.70280497    -0.79700
C1916       C  0.62683754  0.26108631  0.80214477     0.95500
O1917       O  0.66434542  0.28135823  0.69859065    -0.77700
O1918       O  0.61450849  0.34193786  0.79165128    -0.82900
C1919       C  0.63244919  0.37175497  0.69899848     0.98200
C1920       C  0.63516740  0.36723408  0.81264099     1.04100
O1921       O  0.65932803  0.39029113  0.71812820    -0.78500
C1922       C  0.63391026  0.26787069  0.68778250     1.02400
C1923       C  0.64012321  0.06893658  0.59724693     0.85900
C1924       C  0.61279534  0.03440222  0.61066691    -0.54300
C1925       C  0.58566911  0.01854270  0.58496194     0.08800
C1926       C  0.58555212  0.04392924  0.55266127     0.19800
C1927       C  0.64580792  0.06712790  0.55209235    -0.55100
C1928       C  0.61785075  0.05497855  0.52805122     0.08900
C1929       C  0.62152820  0.08833030  0.60010203    -0.54600
C1930       C  0.59333469  0.07684666  0.57632336     0.09500
H1931       H  0.61585616  0.02348417  0.63845505     0.14000
H1932       H  0.56218625  0.03335433  0.53465564    -0.00200
H1933       H  0.67089497  0.07590456  0.54103111     0.14300
H1934       H  0.62973473  0.10832721  0.62190209     0.14100
C1935       C  0.93174517  0.35898829  0.90486734     0.85900
C1936       C  0.96939103  0.37662479  0.90631648    -0.54300
C1937       C  0.98524349  0.40685297  0.92603903     0.08800
C1938       C  0.95958641  0.41461142  0.94802523     0.19800
C1939       C  0.92309487  0.35342197  0.95012680    -0.55100
C1940       C  0.93815311  0.38219820  0.97365090     0.08900
C1941       C  0.92456558  0.38623190  0.88990332    -0.54600
C1942       C  0.93452737  0.41345853  0.91500980     0.09500
H1943       H  0.98165805  0.36243824  0.89960478     0.14000
H1944       H  0.97182309  0.43848350  0.96530420    -0.00200
H1945       H  0.90716812  0.32806781  0.96161748     0.14300
H1946       H  0.90961330  0.38173991  0.86280890     0.14100
C1947       C  0.64890462  0.07254146  0.91693552     0.85900
C1948       C  0.62774964  0.08852128  0.90802685    -0.54300
C1949       C  0.59690336  0.07420628  0.92642381     0.08800
C1950       C  0.59020591  0.04335111  0.95335474     0.19800
C1951       C  0.65115444  0.07339601  0.96345146    -0.55100
C1952       C  0.62047823  0.05818354  0.98314964     0.08900
C1953       C  0.62746106  0.03540428  0.90870061    -0.54600
C1954       C  0.59621702  0.01928402  0.92586987     0.09500
H1955       H  0.63888159  0.11104158  0.88942421     0.14000
H1956       H  0.56527490  0.03087166  0.96787727    -0.00200
H1957       H  0.67480029  0.08483155  0.97912811     0.14300
H1958       H  0.63848722  0.02340688  0.89165893     0.14100
C1959       C  0.57718753  0.42846852  0.91631391     0.85900
C1960       C  0.58726771  0.46361150  0.90114509    -0.54300
C1961       C  0.57391113  0.48024990  0.92174540     0.08800
C1962       C  0.54634545  0.45655282  0.95247896     0.19800
C1963       C  0.58094863  0.43052117  0.96225583    -0.55100
C1964       C  0.56497661  0.44501480  0.98185344     0.08900
C1965       C  0.53981527  0.41087497  0.90881194    -0.54600
C1966       C  0.52240709  0.42396758  0.92839616     0.09500
H1967       H  0.60451867  0.47390513  0.87616183     0.14000
H1968       H  0.53327163  0.46841028  0.96712395    -0.00200
H1969       H  0.59454984  0.41980860  0.97713579     0.14300
H1970       H  0.52942001  0.39131934  0.88634563     0.14100
C1971       C  0.57028723  0.43066887  0.59717751     0.85900
C1972       C  0.53289657  0.41253813  0.60125716    -0.54300
C1973       C  0.51617769  0.42448210  0.57798774     0.08800
C1974       C  0.54109151  0.45715585  0.55352603     0.19800
C1975       C  0.57838066  0.43360037  0.55223229    -0.55100
C1976       C  0.56215602  0.44562638  0.52834657     0.08900
C1977       C  0.58072899  0.46663132  0.60804427    -0.54600
C1978       C  0.56702106  0.48224350  0.58535801     0.09500
H1979       H  0.52167735  0.39163441  0.62237110     0.14000
H1980       H  0.52849817  0.46815863  0.53543068    -0.00200
H1981       H  0.59636058  0.42707433  0.54108553     0.14300
H1982       H  0.60091537  0.47915394  0.62914686     0.14100
C1983       C  0.92289412  0.35178569  0.58462609     0.85900
C1984       C  0.90953514  0.37469120  0.59503432    -0.54300
C1985       C  0.92440015  0.40579458  0.57668777     0.08800
C1986       C  0.95305966  0.41077219  0.54741686     0.19800
C1987       C  0.91970910  0.34925310  0.53849297    -0.55100
C1988       C  0.93554349  0.37985274  0.51815835     0.08900
C1989       C  0.96020275  0.37139286  0.59075414    -0.54600
C1990       C  0.97703954  0.40307539  0.57344898     0.09500
H1991       H  0.88805077  0.36458634  0.61472272     0.14000
H1992       H  0.96582705  0.43584944  0.53230158    -0.00200
H1993       H  0.90761375  0.32536286  0.52330209     0.14300
H1994       H  0.97138463  0.35890647  0.60709714     0.14100
C1995       C  0.85500708  0.42601905  0.59127641     0.85900
C1996       C  0.87621095  0.46349550  0.59787543    -0.54300
C1997       C  0.90490592  0.48017044  0.57524630     0.08800
C1998       C  0.91149467  0.45517870  0.55005665     0.19800
C1999       C  0.85087079  0.42148041  0.54536819    -0.55100
C2000       C  0.88006668  0.43635713  0.52317391     0.08900
C2001       C  0.87976114  0.41521342  0.60422672    -0.54600
C2002       C  0.90818311  0.42733412  0.58068045     0.09500
H2003       H  0.87028302  0.47475165  0.62273257     0.14000
H2004       H  0.93558203  0.46773296  0.53354189    -0.00200
H2005       H  0.82596780  0.40721416  0.53270879     0.14300
H2006       H  0.87416127  0.39875813  0.63023850     0.14100
C2007       C  0.56893215  0.13876202  0.90305276     0.85900
C2008       C  0.53428355  0.11111632  0.89020037    -0.54300
C2009       C  0.51855196  0.08409809  0.91642660     0.08800
C2010       C  0.54383149  0.08394596  0.94834242     0.19800
C2011       C  0.56633935  0.14459386  0.94797515    -0.55100
C2012       C  0.55450495  0.11660959  0.97252712     0.08900
C2013       C  0.58759984  0.11992515  0.89974347    -0.54600
C2014       C  0.57631762  0.09163285  0.92382033     0.09500
H2015       H  0.52268673  0.11277230  0.86228874     0.14000
H2016       H  0.53341104  0.06045567  0.96673101    -0.00200
H2017       H  0.57416159  0.16984698  0.95846585     0.14300
H2018       H  0.60776837  0.12909686  0.87816139     0.14100
C2019       C  0.92970350  0.07361699  0.91293983     0.85900
C2020       C  0.91294322  0.03620492  0.90442649    -0.54300
C2021       C  0.92469254  0.01816877  0.92556310     0.08800
C2022       C  0.95555642  0.04149974  0.95255009     0.19800
C2023       C  0.93008089  0.07734112  0.95848663    -0.55100
C2024       C  0.94280853  0.06039007  0.98025893     0.08900
C2025       C  0.96644030  0.08668147  0.90475749    -0.54600
C2026       C  0.98077794  0.06980936  0.92332080     0.09500
H2027       H  0.89273987  0.02584770  0.88268214     0.14000
H2028       H  0.96645014  0.02801349  0.96907924    -0.00200
H2029       H  0.92362970  0.09487954  0.97136692     0.14300
H2030       H  0.98093122  0.11120863  0.89052679     0.14100
C2031       C  0.85567172  0.42295646  0.90950841     0.85900
C2032       C  0.88009713  0.41129129  0.89976301    -0.54300
C2033       C  0.91030188  0.42684934  0.91983454     0.08800
C2034       C  0.91245925  0.45415166  0.95010339     0.19800
C2035       C  0.85153105  0.41859220  0.95558069    -0.55100
C2036       C  0.88077406  0.43497938  0.97761835     0.08900
C2037       C  0.87447189  0.46095661  0.90446807    -0.54600
C2038       C  0.90459889  0.47838025  0.92460693     0.09500
H2039       H  0.87190378  0.39064680  0.87877421     0.14000
H2040       H  0.93655666  0.46733309  0.96663959    -0.00200
H2041       H  0.82730930  0.40587363  0.96959809     0.14300
H2042       H  0.86245636  0.47204521  0.88708689     0.14100
C2043       C  0.92743908  0.07304046  0.58863080     0.85900
C2044       C  0.96331672  0.08579889  0.60085646    -0.54300
C2045       C  0.98027083  0.07305537  0.58011087     0.08800
C2046       C  0.95673104  0.04460143  0.55006315     0.19800
C2047       C  0.92854904  0.07781197  0.54251383    -0.55100
C2048       C  0.94320843  0.06246944  0.52149479     0.08900
C2049       C  0.90983774  0.03537374  0.59241863    -0.54600
C2050       C  0.92496599  0.01934093  0.57485407     0.09500
H2051       H  0.97404882  0.10570708  0.62295818     0.14000
H2052       H  0.96896770  0.03226210  0.53449952    -0.00200
H2053       H  0.91596768  0.08967254  0.52811613     0.14300
H2054       H  0.88481595  0.02293873  0.60475311     0.14100
C2055       C  0.57225848  0.14915542  0.58249770     0.85900
C2056       C  0.59029887  0.12928098  0.58977699    -0.54300
C2057       C  0.57610219  0.09770117  0.57254947     0.08800
C2058       C  0.54342713  0.08903186  0.54867774     0.19800
C2059       C  0.56906679  0.14992711  0.53672948    -0.55100
C2060       C  0.55465289  0.11901173  0.51809033     0.08900
C2061       C  0.53760877  0.12470145  0.59855984    -0.54600
C2062       C  0.52070498  0.09377849  0.57979796     0.09500
H2063       H  0.61252746  0.14009825  0.60809161     0.14000
H2064       H  0.53119243  0.06368278  0.53477084    -0.00200
H2065       H  0.57914256  0.17397301  0.52109643     0.14300
H2066       H  0.52803314  0.13258372  0.62319047     0.14100
Fe2067     Fe  0.88190795  0.19084118  0.74569829     1.65800
Fe2068     Fe  0.80848011  0.11626953  0.75138396     1.73200
Fe2069     Fe  0.80808644  0.19071947  0.75248818     1.54400
O2070       O  0.84346117  0.22904874  0.78827085    -0.82300
O2071       O  0.77701917  0.11337500  0.70460265    -0.80600
O2072       O  0.88751298  0.22170997  0.79392588    -0.84800
O2073       O  0.88261934  0.22575945  0.70545436    -0.79600
O2074       O  0.78274992  0.16523596  0.80460744    -0.81400
O2075       O  0.83894703  0.11187219  0.70896933    -0.84100
C2076       C  0.86143616  0.23240799  0.68953822     0.96600
C2077       C  0.87211031  0.23732226  0.80280514     1.04100
O2078       O  0.83286049  0.16595772  0.74995905    -1.13100
O2079       O  0.83778800  0.11427156  0.79821117    -0.75600
O2080       O  0.88773600  0.15917236  0.78562833    -0.79000
O2081       O  0.83100759  0.21842191  0.70059275    -0.79700
C2082       C  0.86924874  0.13157276  0.80416333     0.95500
O2083       O  0.88213197  0.16317234  0.69662456    -0.77700
O2084       O  0.77424414  0.11332285  0.79376334    -0.82900
C2085       C  0.76156257  0.12956727  0.69807707     0.98200
C2086       C  0.76820376  0.13377658  0.81270746     1.04100
O2087       O  0.76897501  0.15658600  0.71667390    -0.78500
C2088       C  0.86528168  0.13177925  0.68939901     1.02400
C2089       C  0.88163291  0.08954266  0.67578682    -0.06400
C2090       C  0.87886118  0.11676145  0.66085452    -0.00400
C2091       C  0.89158210  0.12997647  0.62193853    -0.09000
C2092       C  0.90697328  0.11527489  0.59944838    -0.06400
C2093       C  0.91100013  0.08850344  0.61503470    -0.00400
C2094       C  0.90015393  0.07734292  0.65587658    -0.08900
C2095       C  0.90668416  0.05276764  0.68093422     0.61500
H2096       H  0.87116552  0.07920524  0.70534447     0.12200
H2097       H  0.91724436  0.12598788  0.57018638     0.12200
C2098       C  0.88764404  0.15842261  0.60357110     0.61700
F2099       F  0.91270415  0.06295444  0.72098280    -0.23500
F2100       F  0.93423797  0.05093801  0.66855282    -0.20800
F2101       F  0.87864804  0.02086785  0.67981711    -0.20500
F2102       F  0.90739257  0.18812811  0.62426422    -0.20500
F2103       F  0.85445352  0.15021383  0.60588264    -0.20900
F2104       F  0.89697464  0.16398038  0.56319226    -0.23500
C2105       C  0.86880472  0.10240765  0.86850829    -0.06400
C2106       C  0.88543990  0.11857861  0.83261064    -0.00400
C2107       C  0.91592539  0.11975051  0.82295758    -0.09000
C2108       C  0.92841447  0.10464632  0.84961843    -0.06400
C2109       C  0.91353631  0.09046454  0.88742320    -0.00400
C2110       C  0.88171762  0.08772134  0.89596426    -0.08900
C2111       C  0.86050194  0.06994295  0.93322753     0.61500
H2112       H  0.84535193  0.10152153  0.87506881     0.12200
H2113       H  0.94966220  0.10286556  0.83955463     0.12200
C2114       C  0.93511252  0.13587404  0.78400277     0.61700
F2115       F  0.82718022  0.06035238  0.92673530    -0.23500
F2116       F  0.87165004  0.09170402  0.96578860    -0.20800
F2117       F  0.86123644  0.04081067  0.94292431    -0.20500
F2118       F  0.94873032  0.17057218  0.78547614    -0.20500
F2119       F  0.91389364  0.12330390  0.75117320    -0.20900
F2120       F  0.96110733  0.12940991  0.77780514    -0.23500
C2121       C  0.89473934  0.29242975  0.67814417    -0.06400
C2122       C  0.87452731  0.26089293  0.66088821    -0.00400
C2123       C  0.86918563  0.25828719  0.61862416    -0.09000
C2124       C  0.88487608  0.28800124  0.59496692    -0.06400
C2125       C  0.90625921  0.32016395  0.61190530    -0.00400
C2126       C  0.91040854  0.32228144  0.65528543    -0.08900
C2127       C  0.93017614  0.35393337  0.68136905     0.61500
H2128       H  0.89803915  0.29380913  0.71080814     0.12200
H2129       H  0.87963940  0.28523194  0.56298487     0.12200
C2130       C  0.84766512  0.22526788  0.59668208     0.61700
F2131       F  0.94468982  0.38460704  0.66152044    -0.23500
F2132       F  0.95548458  0.35162802  0.70137051    -0.20800
F2133       F  0.90883503  0.35481199  0.71006749    -0.20500
F2134       F  0.82062060  0.22594653  0.57916222    -0.20500
F2135       F  0.83579039  0.19730839  0.62184298    -0.20900
F2136       F  0.86628904  0.22169677  0.56641587    -0.23500
C2137       C  0.71290052  0.10906150  0.90706314    -0.06400
C2138       C  0.68064512  0.08867769  0.88985194    -0.00400
C2139       C  0.67864038  0.08421779  0.84644854    -0.09000
C2140       C  0.70835792  0.09853755  0.82393673    -0.06400
C2141       C  0.73967839  0.11908409  0.84116096    -0.00400
C2142       C  0.74243053  0.12436631  0.88330872    -0.08900
C2143       C  0.77660225  0.14502297  0.90288413     0.61500
H2144       H  0.71538006  0.11372769  0.93911485     0.12200
H2145       H  0.70713160  0.09422168  0.79151502     0.12200
C2146       C  0.64705078  0.06334437  0.82083344     0.61700
F2147       F  0.77439599  0.14618966  0.94457513    -0.23500
F2148       F  0.79210198  0.17780844  0.88799373    -0.20800
F2149       F  0.79621825  0.13076074  0.89415220    -0.20500
F2150       F  0.64940508  0.08022678  0.78479162    -0.20500
F2151       F  0.61744403  0.05704229  0.83832328    -0.20900
F2152       F  0.64484485  0.03276070  0.81167518    -0.23500
C2153       C  0.86744811  0.27336779  0.85515640    -0.06400
C2154       C  0.88818800  0.26717214  0.82993065    -0.00400
C2155       C  0.92255895  0.29187631  0.82703478    -0.09000
C2156       C  0.93463054  0.32152782  0.84985615    -0.06400
C2157       C  0.91473797  0.32692422  0.87812087    -0.00400
C2158       C  0.87955323  0.30298785  0.87839242    -0.08900
C2159       C  0.85253537  0.30663937  0.90041661     0.61500
H2160       H  0.84087005  0.25497461  0.85596820     0.12200
H2161       H  0.95992863  0.34124314  0.84402333     0.12200
C2162       C  0.94666755  0.28772674  0.79941307     0.61700
F2163       F  0.82851617  0.30353243  0.87263048    -0.23500
F2164       F  0.86364297  0.33698707  0.91969061    -0.20800
F2165       F  0.83741310  0.28095161  0.92887956    -0.20500
F2166       F  0.93461059  0.28168596  0.76013731    -0.20500
F2167       F  0.95035728  0.26100636  0.81309057    -0.20900
F2168       F  0.97823955  0.31624648  0.79862673    -0.23500
C2169       C  0.71614272  0.08065220  0.66178245    -0.06400
C2170       C  0.73286109  0.11555752  0.66901590    -0.00400
C2171       C  0.72201152  0.13568657  0.64783354    -0.09000
C2172       C  0.69245479  0.11943578  0.62465896    -0.06400
C2173       C  0.67351386  0.08395734  0.62086135    -0.00400
C2174       C  0.68851861  0.06494495  0.63544045    -0.08900
C2175       C  0.67845248  0.02906208  0.62318830     0.61500
H2176       H  0.72543007  0.06536213  0.67594106     0.12200
H2177       H  0.68417036  0.13481202  0.60882360     0.12200
C2178       C  0.74157862  0.17412955  0.64829616     0.61700
F2179       F  0.66022489  0.01928752  0.58767204    -0.23500
F2180       F  0.66045714  0.00696967  0.65426000    -0.20800
F2181       F  0.70688806  0.02669390  0.61655407    -0.20500
F2182       F  0.77509136  0.18550665  0.64158368    -0.20500
F2183       F  0.73769075  0.18575958  0.68521557    -0.20900
F2184       F  0.73089672  0.18804271  0.61826619    -0.23500
C2185       C  0.60712757  0.37499197  0.63453665    -0.06400
C2186       C  0.61795589  0.38780107  0.67340751    -0.00400
C2187       C  0.61025977  0.41185840  0.68908758    -0.09000
C2188       C  0.59437324  0.42433074  0.66362912    -0.06400
C2189       C  0.58568958  0.41365466  0.62314226    -0.00400
C2190       C  0.58880522  0.38547296  0.61019973    -0.08900
C2191       C  0.57187106  0.36370462  0.57318783     0.61500
H2192       H  0.61139039  0.35499217  0.62401709     0.12200
H2193       H  0.58738108  0.44167748  0.67619651     0.12200
C2194       C  0.61660831  0.42267245  0.73325189     0.61700
F2195       F  0.55941657  0.32991911  0.58297410    -0.23500
F2196       F  0.59510779  0.37229318  0.54249935    -0.20800
F2197       F  0.54495489  0.36633327  0.55919449    -0.20500
F2198       F  0.65057488  0.43936154  0.74150995    -0.20500
F2199       F  0.60041424  0.39443326  0.75798031    -0.20900
F2200       F  0.60472744  0.44428526  0.74281192    -0.23500
C2201       C  0.77497960  0.36300861  0.65123118    -0.06400
C2202       C  0.76274128  0.38421229  0.66405414    -0.00400
C2203       C  0.77809003  0.41773866  0.64805879    -0.09000
C2204       C  0.80610753  0.42889286  0.62249399    -0.06400
C2205       C  0.82088478  0.40897695  0.61367958    -0.00400
C2206       C  0.80248357  0.37403993  0.62483809    -0.08900
C2207       C  0.80975954  0.34683088  0.61005728     0.61500
H2208       H  0.76254522  0.33691845  0.66156789     0.12200
H2209       H  0.81688045  0.45388629  0.60924720     0.12200
C2210       C  0.76616571  0.44248575  0.65835463     0.61700
F2211       F  0.77996696  0.31786129  0.60063220    -0.23500
F2212       F  0.82550925  0.33891643  0.64053557    -0.20800
F2213       F  0.82914196  0.35606949  0.57552373    -0.20500
F2214       F  0.76832808  0.44778918  0.69972657    -0.20500
F2215       F  0.73342834  0.42983255  0.64547509    -0.20900
F2216       F  0.78535007  0.47371689  0.63980399    -0.23500
C2217       C  0.64177705  0.41438362  0.85683542    -0.06400
C2218       C  0.62217474  0.38034255  0.84534466    -0.00400
C2219       C  0.59095653  0.36036534  0.86520286    -0.09000
C2220       C  0.57818234  0.37655320  0.88964187    -0.06400
C2221       C  0.59581535  0.41181810  0.89631109    -0.00400
C2222       C  0.63022625  0.42974577  0.88433074    -0.08900
C2223       C  0.65669230  0.46401278  0.90038945     0.61500
H2224       H  0.66686840  0.42933046  0.84466752     0.12200
H2225       H  0.55382307  0.36139789  0.90340655     0.12200
C2226       C  0.57101896  0.32212434  0.86140086     0.61700
F2227       F  0.68396742  0.46164862  0.91400815    -0.23500
F2228       F  0.64597923  0.47519578  0.93258008    -0.20800
F2229       F  0.66722834  0.48779920  0.86947118    -0.20500
F2230       F  0.59220860  0.30881124  0.86368423    -0.20500
F2231       F  0.55397746  0.31348062  0.82489624    -0.20900
F2232       F  0.54781797  0.30746180  0.89232679    -0.23500
C2233       C  0.79287647  0.38113091  0.89856075    -0.06400
C2234       C  0.82420806  0.40555022  0.88198260    -0.00400
C2235       C  0.82523295  0.41278071  0.83926620    -0.09000
C2236       C  0.79504263  0.39849811  0.81742244    -0.06400
C2237       C  0.76432983  0.37541415  0.83465502    -0.00400
C2238       C  0.76295156  0.36622190  0.87571220    -0.08900
C2239       C  0.72975441  0.34173636  0.89551054     0.61500
H2240       H  0.79136677  0.37263426  0.92933418     0.12200
H2241       H  0.79552990  0.40490387  0.78555471     0.12200
C2242       C  0.85615462  0.43515778  0.81342488     0.61700
F2243       F  0.73321319  0.33813976  0.93666154    -0.23500
F2244       F  0.71661288  0.31022085  0.87799884    -0.20800
F2245       F  0.70743521  0.35346352  0.89034181    -0.20500
F2246       F  0.88658490  0.44549546  0.83184393    -0.20500
F2247       F  0.85498373  0.46365860  0.80120567    -0.20900
F2248       F  0.85550614  0.41752919  0.77919405    -0.23500
C2249       C  0.62405857  0.20204515  0.60831220    -0.06400
C2250       C  0.58915502  0.18492011  0.60168776    -0.00400
C2251       C  0.57152647  0.20149152  0.61471382    -0.09000
C2252       C  0.58717320  0.22825786  0.64250769    -0.06400
C2253       C  0.62086166  0.24183329  0.65459477    -0.00400
C2254       C  0.64027263  0.22956913  0.63504394    -0.08900
C2255       C  0.67764562  0.24410910  0.64265098     0.61500
H2256       H  0.63877881  0.19311757  0.59299090     0.12200
H2257       H  0.57263643  0.23891577  0.65456600     0.12200
C2258       C  0.53706203  0.19357086  0.59957771     0.61700
F2259       F  0.69123068  0.22935941  0.61846797    -0.23500
F2260       F  0.68297638  0.23839260  0.68253485    -0.20800
F2261       F  0.69471810  0.27844452  0.63420818    -0.20500
F2262       F  0.51380591  0.17835625  0.63027636    -0.20500
F2263       F  0.52650793  0.17308652  0.56591483    -0.20900
F2264       F  0.53801212  0.22340578  0.58858074    -0.23500
C2265       C  0.63211741  0.22497572  0.85435149    -0.06400
C2266       C  0.61096877  0.23160116  0.83011293    -0.00400
C2267       C  0.57579369  0.20957390  0.83244113    -0.09000
C2268       C  0.56353947  0.18071651  0.85734973    -0.06400
C2269       C  0.58478842  0.17241318  0.87945182    -0.00400
C2270       C  0.61981864  0.19704234  0.88080380    -0.08900
C2271       C  0.64613980  0.19666760  0.90889965     0.61500
H2272       H  0.65888091  0.24264552  0.85354417     0.12200
H2273       H  0.53678896  0.16500445  0.86041544     0.12200
C2274       C  0.55091740  0.21553398  0.80821746     0.61700
F2275       F  0.66765040  0.19041970  0.88633681    -0.23500
F2276       F  0.63344656  0.17341798  0.94010449    -0.20800
F2277       F  0.66458514  0.22811518  0.92669129    -0.20500
F2278       F  0.55886453  0.21883621  0.76746329    -0.20500
F2279       F  0.55153500  0.24444510  0.82162759    -0.20900
F2280       F  0.51838604  0.18905368  0.81236872    -0.23500
Fe2281     Fe  0.69058520  0.80658320  0.24861130     1.65800
Fe2282     Fe  0.61785363  0.80890093  0.24584309     1.73200
Fe2283     Fe  0.69183394  0.88161363  0.25508143     1.54400
O2284       O  0.72743569  0.88157111  0.29328788    -0.82300
O2285       O  0.61862668  0.83934464  0.19931747    -0.80600
O2286       O  0.71752064  0.82881737  0.30097910    -0.84800
O2287       O  0.72945738  0.84251679  0.21302453    -0.79600
O2288       O  0.66427304  0.88077811  0.30512326    -0.81400
O2289       O  0.61543320  0.77494797  0.20284006    -0.84100
C2290       C  0.73693321  0.87087920  0.19685275     0.96600
C2291       C  0.73353330  0.85999816  0.30984927     1.04100
O2292       O  0.66675731  0.83228132  0.25003105    -1.13100
O2293       O  0.61197023  0.77584867  0.29173447    -0.75600
O2294       O  0.65505679  0.76709683  0.28368696    -0.79000
O2295       O  0.72117563  0.88630192  0.20541961    -0.79700
C2296       C  0.62678476  0.75926698  0.29889866     0.95500
O2297       O  0.66626343  0.78173278  0.19608598    -0.77700
O2298       O  0.61345888  0.83985620  0.28821383    -0.82900
C2299       C  0.63418725  0.87130597  0.19694364     0.98200
C2300       C  0.63261614  0.86492470  0.31018363     1.04100
O2301       O  0.66030227  0.88969325  0.21751967    -0.78500
C2302       C  0.63585911  0.76831688  0.18502414     1.02400
C2303       C  0.63986903  0.57031077  0.09552461     0.85900
C2304       C  0.61247900  0.53655187  0.11083736    -0.54300
C2305       C  0.58474208  0.52001174  0.08616505     0.08800
C2306       C  0.58458425  0.54431220  0.05223109     0.19800
C2307       C  0.64476992  0.56665536  0.05065872    -0.55100
C2308       C  0.61654907  0.55411239  0.02710145     0.08900
C2309       C  0.62176729  0.59019795  0.09719879    -0.54600
C2310       C  0.59300577  0.57805405  0.07437912     0.09500
H2311       H  0.61611638  0.52699611  0.13932693     0.14000
H2312       H  0.56098612  0.53336578  0.03461852    -0.00200
H2313       H  0.66961016  0.57457243  0.03932706     0.14300
H2314       H  0.63031298  0.61055251  0.11844060     0.14100
C2315       C  0.93074087  0.85881716  0.40612510     0.85900
C2316       C  0.96847783  0.87762484  0.40618751    -0.54300
C2317       C  0.98403163  0.90832095  0.42515575     0.08800
C2318       C  0.95829860  0.91496015  0.44849912     0.19800
C2319       C  0.92331293  0.85346543  0.45142161    -0.55100
C2320       C  0.93814791  0.88237059  0.47458899     0.08900
C2321       C  0.92209971  0.88514367  0.39167827    -0.54600
C2322       C  0.93232512  0.91271753  0.41631041     0.09500
H2323       H  0.98153559  0.86407201  0.40003749     0.14000
H2324       H  0.97032027  0.93895929  0.46554953    -0.00200
H2325       H  0.90839621  0.82801657  0.46307583     0.14300
H2326       H  0.90639120  0.87989652  0.36515820     0.14100
C2327       C  0.64430512  0.57204634  0.41330309     0.85900
C2328       C  0.62544953  0.59095443  0.41161816    -0.54300
C2329       C  0.59408688  0.57499829  0.42859636     0.08800
C2330       C  0.58659720  0.54192513  0.45170465     0.19800
C2331       C  0.64735334  0.56846678  0.45929976    -0.55100
C2332       C  0.61725987  0.55345566  0.48017935     0.08900
C2333       C  0.62028471  0.53661594  0.39914130    -0.54600
C2334       C  0.59093665  0.51915792  0.42037498     0.09500
H2335       H  0.63793975  0.61624953  0.39901714     0.14000
H2336       H  0.56191028  0.52936254  0.46688175    -0.00200
H2337       H  0.67144700  0.58007079  0.47400101     0.14300
H2338       H  0.62840497  0.52632573  0.37532675     0.14100
C2339       C  0.57365221  0.92702230  0.41248172     0.85900
C2340       C  0.58753203  0.96370212  0.40127397    -0.54300
C2341       C  0.57518189  0.98076552  0.42290634     0.08800
C2342       C  0.54554236  0.95663165  0.45141693     0.19800
C2343       C  0.57522771  0.92526517  0.45863692    -0.55100
C2344       C  0.56109862  0.94096744  0.47953076     0.08900
C2345       C  0.53697455  0.91343069  0.40260228    -0.54600
C2346       C  0.52069342  0.92628987  0.42477377     0.09500
H2347       H  0.60628648  0.97442563  0.37786963     0.14000
H2348       H  0.53361450  0.96917608  0.46712748    -0.00200
H2349       H  0.58653562  0.91182420  0.47261946     0.14300
H2350       H  0.52558344  0.89662727  0.37727435     0.14100
C2351       C  0.57194347  0.92873973  0.09244770     0.85900
C2352       C  0.53465152  0.91137959  0.09845230    -0.54300
C2353       C  0.51763354  0.92340252  0.07581692     0.08800
C2354       C  0.54213416  0.95569038  0.05073844     0.19800
C2355       C  0.57827703  0.93070220  0.04718790    -0.55100
C2356       C  0.56197215  0.94334412  0.02445699     0.08900
C2357       C  0.58383675  0.96515817  0.10230596    -0.54600
C2358       C  0.56920199  0.98074061  0.08148269     0.09500
H2359       H  0.52363820  0.89076695  0.12001649     0.14000
H2360       H  0.52935638  0.96694373  0.03352878    -0.00200
H2361       H  0.59565095  0.92381834  0.03496487     0.14300
H2362       H  0.60571227  0.97789026  0.12100731     0.14100
C2363       C  0.92641026  0.85255474  0.08704726     0.85900
C2364       C  0.91164420  0.87453445  0.09577240    -0.54300
C2365       C  0.92562950  0.90532119  0.07670117     0.08800
C2366       C  0.95503470  0.91099884  0.04829522     0.19800
C2367       C  0.92387965  0.84928582  0.04086544    -0.55100
C2368       C  0.93853005  0.87958340  0.01979266     0.08900
C2369       C  0.96350500  0.87356358  0.09362138    -0.54600
C2370       C  0.97974040  0.90476930  0.07503542     0.09500
H2371       H  0.88950936  0.86362720  0.11439392     0.14000
H2372       H  0.96714458  0.93578617  0.03250857    -0.00200
H2373       H  0.91282313  0.82518089  0.02623556     0.14300
H2374       H  0.97556328  0.86085259  0.10717746     0.14100
C2375       C  0.85709743  0.92833380  0.09292914     0.85900
C2376       C  0.88135832  0.96478435  0.10295536    -0.54300
C2377       C  0.90947232  0.98108390  0.07945196     0.08800
C2378       C  0.91329729  0.95587356  0.05100706     0.19800
C2379       C  0.85250167  0.92719990  0.04688705    -0.55100
C2380       C  0.88140672  0.94040743  0.02430763     0.08900
C2381       C  0.87903202  0.91331351  0.10197088    -0.54600
C2382       C  0.90775020  0.92546490  0.07887075     0.09500
H2383       H  0.87861543  0.97560299  0.13062156     0.14000
H2384       H  0.93716068  0.96755810  0.03402482    -0.00200
H2385       H  0.82749901  0.91572856  0.03430831     0.14300
H2386       H  0.87109276  0.89437749  0.12558050     0.14100
C2387       C  0.56464704  0.63746284  0.40158381     0.85900
C2388       C  0.52950859  0.60954248  0.39055036    -0.54300
C2389       C  0.51461646  0.58335680  0.41792851     0.08800
C2390       C  0.54052447  0.58388928  0.44920896     0.19800
C2391       C  0.56304762  0.64450157  0.44676357    -0.55100
C2392       C  0.55173093  0.61695596  0.47225692     0.08900
C2393       C  0.58284713  0.61815084  0.39855482    -0.54600
C2394       C  0.57251564  0.59111857  0.42447598     0.09500
H2395       H  0.51634491  0.60990864  0.36355740     0.14000
H2396       H  0.53050868  0.56069548  0.46803699    -0.00200
H2397       H  0.57158131  0.67003084  0.45684532     0.14300
H2398       H  0.60229531  0.62596971  0.37600051     0.14100
C2399       C  0.92659976  0.56988397  0.40911727     0.85900
C2400       C  0.91087592  0.53255444  0.40160838    -0.54300
C2401       C  0.92304241  0.51558300  0.42396955     0.08800
C2402       C  0.95390561  0.54014785  0.45045594     0.19800
C2403       C  0.92671621  0.57452006  0.45463945    -0.55100
C2404       C  0.94076295  0.55921261  0.47724100     0.08900
C2405       C  0.96350874  0.58377013  0.40092323    -0.54600
C2406       C  0.97865037  0.56820968  0.42064848     0.09500
H2407       H  0.89095287  0.52140139  0.37955409     0.14000
H2408       H  0.96538389  0.52750755  0.46755828    -0.00200
H2409       H  0.91702958  0.58982789  0.46675440     0.14300
H2410       H  0.97751563  0.60827543  0.38661319     0.14100
C2411       C  0.85469219  0.92387557  0.41077875     0.85900
C2412       C  0.87845670  0.91135361  0.40135473    -0.54300
C2413       C  0.90879412  0.92678461  0.42091429     0.08800
C2414       C  0.91188575  0.95482268  0.45044827     0.19800
C2415       C  0.85085359  0.92037707  0.45689226    -0.55100
C2416       C  0.88037303  0.93661518  0.47846837     0.08900
C2417       C  0.87408466  0.96188334  0.40475753    -0.54600
C2418       C  0.90460403  0.97906757  0.42420852     0.09500
H2419       H  0.86970251  0.89020276  0.38104135     0.14000
H2420       H  0.93617570  0.96785690  0.46657341    -0.00200
H2421       H  0.82662992  0.90792622  0.47106995     0.14300
H2422       H  0.86245662  0.97322195  0.38704399     0.14100
C2423       C  0.92806367  0.57361515  0.09156731     0.85900
C2424       C  0.96360097  0.58490052  0.10406377    -0.54300
C2425       C  0.98000433  0.57192270  0.08256720     0.08800
C2426       C  0.95596124  0.54429388  0.05183225     0.19800
C2427       C  0.92965385  0.57925903  0.04544687    -0.55100
C2428       C  0.94319645  0.56310445  0.02386039     0.08900
C2429       C  0.90941681  0.53576250  0.09443290    -0.54600
C2430       C  0.92364554  0.51922211  0.07580451     0.09500
H2431       H  0.97463763  0.60413620  0.12694923     0.14000
H2432       H  0.96766715  0.53161778  0.03587076    -0.00200
H2433       H  0.91800280  0.59220881  0.03139541     0.14300
H2434       H  0.88458301  0.52394708  0.10707256     0.14100
C2435       C  0.57153159  0.64994525  0.08093648     0.85900
C2436       C  0.58928139  0.62991845  0.08855432    -0.54300
C2437       C  0.57512813  0.59834308  0.07146506     0.08800
C2438       C  0.54214190  0.58940480  0.04823709     0.19800
C2439       C  0.56796620  0.65015280  0.03528908    -0.55100
C2440       C  0.55285489  0.61896022  0.01733034     0.08900
C2441       C  0.53681857  0.62595562  0.09743472    -0.54600
C2442       C  0.51980418  0.59465329  0.07939677     0.09500
H2443       H  0.61133477  0.64077416  0.10709961     0.14000
H2444       H  0.52976601  0.56391589  0.03469748    -0.00200
H2445       H  0.57833244  0.67403895  0.01923047     0.14300
H2446       H  0.52712428  0.63449443  0.12129637     0.14100
Fe2447     Fe  0.87964660  0.69056585  0.24824892     1.65800
Fe2448     Fe  0.80622652  0.61609348  0.25154277     1.73200
Fe2449     Fe  0.80613909  0.69083367  0.25342546     1.54400
O2450       O  0.84110157  0.72870163  0.29035102    -0.82300
O2451       O  0.77575442  0.61402666  0.20409275    -0.80600
O2452       O  0.88403510  0.71976578  0.29764085    -0.84800
O2453       O  0.88144951  0.72675818  0.20936707    -0.79600
O2454       O  0.77981880  0.66469387  0.30433298    -0.81400
O2455       O  0.83789658  0.61239176  0.20978755    -0.84100
C2456       C  0.86072154  0.73372377  0.19281704     0.96600
C2457       C  0.86920946  0.73604551  0.30592364     1.04100
O2458       O  0.83065023  0.66580006  0.25112450    -1.13100
O2459       O  0.83450004  0.61318389  0.29886456    -0.75600
O2460       O  0.88461855  0.65787721  0.28693043    -0.79000
O2461       O  0.82995992  0.71931640  0.20242850    -0.79700
C2462       C  0.86596896  0.63003247  0.30476057     0.95500
O2463       O  0.88077981  0.66406669  0.19833296    -0.77700
O2464       O  0.77108685  0.61265548  0.29335351    -0.82900
C2465       C  0.76034865  0.63028265  0.19774938     0.98200
C2466       C  0.76488529  0.63317469  0.31197929     1.04100
O2467       O  0.76761293  0.65708237  0.21675361    -0.78500
C2468       C  0.86459313  0.63265793  0.19088313     1.02400
C2469       C  0.88120882  0.59028277  0.17773808    -0.06400
C2470       C  0.87935887  0.61812963  0.16298137    -0.00400
C2471       C  0.89426076  0.63246635  0.12513766    -0.09000
C2472       C  0.90996196  0.61772102  0.10320125    -0.06400
C2473       C  0.91221799  0.58974673  0.11819107    -0.00400
C2474       C  0.89988205  0.57788310  0.15839769    -0.08900
C2475       C  0.90517489  0.55254018  0.18348595     0.61500
H2476       H  0.86989560  0.57955731  0.20685651     0.12200
H2477       H  0.92168406  0.62912445  0.07472541     0.12200
C2478       C  0.89232715  0.66218212  0.10709496     0.61700
F2479       F  0.91135389  0.56273451  0.22353364    -0.23500
F2480       F  0.93208143  0.54949505  0.17122897    -0.20800
F2481       F  0.87641708  0.52116976  0.18220026    -0.20500
F2482       F  0.91123420  0.69085338  0.12990912    -0.20500
F2483       F  0.85931831  0.65475539  0.10647633    -0.20900
F2484       F  0.90426357  0.66925511  0.06774390    -0.23500
C2485       C  0.86461467  0.59747022  0.36624834    -0.06400
C2486       C  0.88203758  0.61612576  0.33190058    -0.00400
C2487       C  0.91301772  0.61842410  0.32193813    -0.09000
C2488       C  0.92504572  0.60179124  0.34672950    -0.06400
C2489       C  0.90934034  0.58521833  0.38322670    -0.00400
C2490       C  0.87691180  0.58095093  0.39151809    -0.08900
C2491       C  0.85331365  0.55923035  0.42533247     0.61500
H2492       H  0.84055536  0.59519777  0.37300933     0.12200
H2493       H  0.94670579  0.60097316  0.33627580     0.12200
C2494       C  0.93365429  0.63793670  0.28505768     0.61700
F2495       F  0.82108456  0.54046152  0.41012140    -0.23500
F2496       F  0.85322522  0.58012926  0.45532437    -0.20800
F2497       F  0.86114065  0.53637394  0.44245860    -0.20500
F2498       F  0.94648226  0.67223353  0.29071015    -0.20500
F2499       F  0.91402990  0.62782900  0.25068581    -0.20900
F2500       F  0.96038073  0.63273883  0.27828574    -0.23500
C2501       C  0.89519865  0.79385817  0.18163715    -0.06400
C2502       C  0.87456241  0.76235470  0.16435797    -0.00400
C2503       C  0.87075264  0.75944698  0.12194758    -0.09000
C2504       C  0.88796614  0.78885697  0.09807764    -0.06400
C2505       C  0.90993679  0.82095718  0.11484633    -0.00400
C2506       C  0.91333053  0.82340861  0.15840411    -0.08900
C2507       C  0.93651343  0.85580044  0.18212322     0.61500
H2508       H  0.89763827  0.79474831  0.21433027     0.12200
H2509       H  0.88333929  0.78588984  0.06598937     0.12200
C2510       C  0.84935257  0.72631058  0.10003999     0.61700
F2511       F  0.93055663  0.85136413  0.22343397    -0.23500
F2512       F  0.93216199  0.88257134  0.17112858    -0.20800
F2513       F  0.96960541  0.86470214  0.17668799    -0.20500
F2514       F  0.82354386  0.72767771  0.08006705    -0.20500
F2515       F  0.83559390  0.69847221  0.12556232    -0.20900
F2516       F  0.86879004  0.72176559  0.07178215    -0.23500
C2517       C  0.70644917  0.59171290  0.40183732    -0.06400
C2518       C  0.67615378  0.58858152  0.38665317    -0.00400
C2519       C  0.67606438  0.59936751  0.34548097    -0.09000
C2520       C  0.70651801  0.61620441  0.32439712    -0.06400
C2521       C  0.73604944  0.61912324  0.33983473    -0.00400
C2522       C  0.73624349  0.60635513  0.37878912    -0.08900
C2523       C  0.76792474  0.60840759  0.39563814     0.61500
H2524       H  0.70675360  0.58134321  0.43118765     0.12200
H2525       H  0.70699746  0.62585815  0.29405397     0.12200
C2526       C  0.64574385  0.59497233  0.32108929     0.61700
F2527       F  0.76374050  0.59637700  0.43507791    -0.23500
F2528       F  0.79362729  0.64170827  0.39525752    -0.20800
F2529       F  0.77692821  0.58934931  0.37204357    -0.20500
F2530       F  0.64607197  0.62545039  0.31991785    -0.20500
F2531       F  0.61516402  0.57022748  0.33546007    -0.20900
F2532       F  0.64781507  0.58599221  0.28168782    -0.23500
C2533       C  0.86527406  0.77289970  0.35787149    -0.06400
C2534       C  0.88565204  0.76574298  0.33326856    -0.00400
C2535       C  0.92039018  0.78938786  0.33124675    -0.09000
C2536       C  0.93303268  0.81943190  0.35335943    -0.06400
C2537       C  0.91337257  0.82615348  0.38045581    -0.00400
C2538       C  0.87801226  0.80263319  0.38105818    -0.08900
C2539       C  0.85139701  0.80664875  0.40366079     0.61500
H2540       H  0.83854125  0.75508695  0.35840632     0.12200
H2541       H  0.95859445  0.83838548  0.34761494     0.12200
C2542       C  0.94433739  0.78381842  0.30502614     0.61700
F2543       F  0.82748115  0.80434257  0.37622582    -0.23500
F2544       F  0.86296047  0.83672571  0.42372912    -0.20800
F2545       F  0.83597589  0.78065119  0.43170004    -0.20500
F2546       F  0.93357639  0.77881941  0.26519457    -0.20500
F2547       F  0.94581618  0.75593441  0.31914588    -0.20900
F2548       F  0.97666926  0.81112353  0.30572133    -0.23500
C2549       C  0.71570768  0.58188789  0.15995381    -0.06400
C2550       C  0.73193384  0.61662622  0.16832001    -0.00400
C2551       C  0.72081131  0.63691443  0.14806709    -0.09000
C2552       C  0.69202371  0.62091521  0.12355324    -0.06400
C2553       C  0.67340049  0.58548702  0.11878710    -0.00400
C2554       C  0.68818466  0.56631315  0.13345403    -0.08900
C2555       C  0.67757516  0.53008131  0.12194007     0.61500
H2556       H  0.72506271  0.56652448  0.17374745     0.12200
H2557       H  0.68400658  0.63646533  0.10766516     0.12200
C2558       C  0.73896315  0.67528152  0.15153124     0.61700
F2559       F  0.65748922  0.51897278  0.08796318    -0.23500
F2560       F  0.66114736  0.50877754  0.15427720    -0.20800
F2561       F  0.70576030  0.52776410  0.11336383    -0.20500
F2562       F  0.77281078  0.68852125  0.14464640    -0.20500
F2563       F  0.73410175  0.68432363  0.18967696    -0.20900
F2564       F  0.72744879  0.68990799  0.12348321    -0.23500
C2565       C  0.60959167  0.87400771  0.13154035    -0.06400
C2566       C  0.62033797  0.88743373  0.17025437    -0.00400
C2567       C  0.61287743  0.91200097  0.18476240    -0.09000
C2568       C  0.59649280  0.92353314  0.15879482    -0.06400
C2569       C  0.58785062  0.91223029  0.11850201    -0.00400
C2570       C  0.59146463  0.88419696  0.10630305    -0.08900
C2571       C  0.57499269  0.86226026  0.06930981     0.61500
H2572       H  0.61394714  0.85388489  0.12178957     0.12200
H2573       H  0.58943019  0.94107479  0.17062545     0.12200
C2574       C  0.62036502  0.92477578  0.22812674     0.61700
F2575       F  0.56419344  0.82867950  0.07855343    -0.23500
F2576       F  0.59804897  0.87210127  0.03819899    -0.20800
F2577       F  0.54703093  0.86343040  0.05630052    -0.20500
F2578       F  0.65456854  0.94207406  0.23483490    -0.20500
F2579       F  0.60511976  0.89771504  0.25469525    -0.20900
F2580       F  0.60850489  0.94661099  0.23658211    -0.23500
C2581       C  0.77320168  0.86443714  0.14609522    -0.06400
C2582       C  0.76544595  0.88621109  0.16736812    -0.00400
C2583       C  0.78577489  0.92158812  0.16096507    -0.09000
C2584       C  0.81330083  0.93346913  0.13453803    -0.06400
C2585       C  0.82328377  0.91200690  0.11612812    -0.00400
C2586       C  0.80077141  0.87631492  0.11952223    -0.08900
C2587       C  0.80308588  0.84883431  0.09623731     0.61500
H2588       H  0.75705437  0.83734832  0.14983186     0.12200
H2589       H  0.82682716  0.96016610  0.12771784     0.12200
C2590       C  0.77953840  0.94724583  0.18263733     0.61700
F2591       F  0.77271863  0.82838094  0.07724535    -0.23500
F2592       F  0.80932600  0.82919552  0.12318706    -0.20800
F2593       F  0.82727342  0.86059548  0.06657186    -0.20500
F2594       F  0.77825358  0.94175868  0.22406622    -0.20500
F2595       F  0.74969793  0.94441434  0.16934020    -0.20900
F2596       F  0.80468963  0.98021155  0.17541674    -0.23500
C2597       C  0.63837673  0.90884950  0.35942576    -0.06400
C2598       C  0.61744221  0.87742416  0.34109976    -0.00400
C2599       C  0.58288491  0.85979854  0.35210969    -0.09000
C2600       C  0.57057260  0.87606578  0.37707628    -0.06400
C2601       C  0.59078390  0.90939499  0.39125033    -0.00400
C2602       C  0.62620647  0.92431197  0.38593872    -0.08900
C2603       C  0.65304454  0.95583300  0.40720920     0.61500
H2604       H  0.66504040  0.92176564  0.35323353     0.12200
H2605       H  0.54454533  0.86231117  0.38577763     0.12200
C2606       C  0.55845334  0.82403791  0.33792657     0.61700
F2607       F  0.67644310  0.94878603  0.42433561    -0.23500
F2608       F  0.64118784  0.96709179  0.43806761    -0.20800
F2609       F  0.66908734  0.98164078  0.37907674    -0.20500
F2610       F  0.57136531  0.80296695  0.34619957    -0.20500
F2611       F  0.55259777  0.82427399  0.29679622    -0.20900
F2612       F  0.52777099  0.81041620  0.35728157    -0.23500
C2613       C  0.79251163  0.87988811  0.40026246    -0.06400
C2614       C  0.82308850  0.90586652  0.38372712    -0.00400
C2615       C  0.82371696  0.91259600  0.34099187    -0.09000
C2616       C  0.79339332  0.89770563  0.31953259    -0.06400
C2617       C  0.76320111  0.87329846  0.33665762    -0.00400
C2618       C  0.76269922  0.86309853  0.37721262    -0.08900
C2619       C  0.73081718  0.83494005  0.39599406     0.61500
H2620       H  0.79187429  0.87139856  0.43093536     0.12200
H2621       H  0.79351131  0.90427795  0.28778328     0.12200
C2622       C  0.85439139  0.93422645  0.31447877     0.61700
F2623       F  0.73504721  0.83001017  0.43658007    -0.23500
F2624       F  0.72126317  0.80497030  0.37600026    -0.20800
F2625       F  0.70546513  0.84275490  0.39284699    -0.20500
F2626       F  0.88500471  0.94526435  0.33274437    -0.20500
F2627       F  0.85298340  0.96220558  0.30058218    -0.20900
F2628       F  0.85350285  0.91540558  0.28134297    -0.23500
C2629       C  0.62444818  0.70259815  0.10501878    -0.06400
C2630       C  0.58942067  0.68603145  0.09907775    -0.00400
C2631       C  0.57271173  0.70358248  0.11159029    -0.09000
C2632       C  0.58910810  0.73049767  0.13894444    -0.06400
C2633       C  0.62262313  0.74296210  0.15127226    -0.00400
C2634       C  0.64134436  0.73003090  0.13168773    -0.08900
C2635       C  0.67856727  0.74375826  0.13927672     0.61500
H2636       H  0.63864438  0.69314564  0.08949565     0.12200
H2637       H  0.57521085  0.74196341  0.15070320     0.12200
C2638       C  0.53855509  0.69653613  0.09639013     0.61700
F2639       F  0.69151883  0.72840534  0.11509709    -0.23500
F2640       F  0.68372786  0.73791176  0.17917331    -0.20800
F2641       F  0.69625865  0.77806991  0.13079648    -0.20500
F2642       F  0.51539234  0.68262555  0.12738429    -0.20500
F2643       F  0.52718188  0.67530896  0.06341827    -0.20900
F2644       F  0.54059362  0.72666794  0.08432258    -0.23500
C2645       C  0.62914890  0.72498197  0.35565468    -0.06400
C2646       C  0.61016999  0.72911818  0.32541859    -0.00400
C2647       C  0.57637816  0.70390736  0.31989042    -0.09000
C2648       C  0.56233670  0.67590658  0.34629621    -0.06400
C2649       C  0.58135840  0.67041289  0.37612713    -0.00400
C2650       C  0.61580991  0.69643057  0.38133451    -0.08900
C2651       C  0.64090919  0.69729073  0.41256565     0.61500
H2652       H  0.65511606  0.74463744  0.35932091     0.12200
H2653       H  0.53595203  0.65876180  0.34335391     0.12200
C2654       C  0.55547671  0.70554146  0.28493127     0.61700
F2655       F  0.66797361  0.69900167  0.39238152    -0.23500
F2656       F  0.62900272  0.67025845  0.43893179    -0.20800
F2657       F  0.65227492  0.72610985  0.43573693    -0.20500
F2658       F  0.57269796  0.71113411  0.24888409    -0.20500
F2659       F  0.54841419  0.73126736  0.29110923    -0.20900
F2660       F  0.52540453  0.67568086  0.28096070    -0.23500
Fe2661     Fe  0.68999150  0.80641935  0.75060227     1.65800
Fe2662     Fe  0.61763042  0.80918003  0.74819189     1.73200
Fe2663     Fe  0.69189716  0.88166058  0.75518644     1.54400
O2664       O  0.72818446  0.88217949  0.79254586    -0.82300
O2665       O  0.61823834  0.83850948  0.70042270    -0.80600
O2666       O  0.71722082  0.82930376  0.80266108    -0.84800
O2667       O  0.72898139  0.84208448  0.71441853    -0.79600
O2668       O  0.66552853  0.88165721  0.80586377    -0.81400
O2669       O  0.61432593  0.77377091  0.70663614    -0.84100
C2670       C  0.73613872  0.87001700  0.69709778     0.96600
C2671       C  0.73393138  0.86074781  0.81014742     1.04100
O2672       O  0.66651277  0.83232496  0.75150578    -1.13100
O2673       O  0.61209735  0.77740163  0.79543271    -0.75600
O2674       O  0.65408824  0.76723049  0.78622621    -0.79000
O2675       O  0.72012194  0.88528043  0.70495143    -0.79700
C2676       C  0.62619058  0.76009529  0.80222118     0.95500
O2677       O  0.66526345  0.78114195  0.69845712    -0.77700
O2678       O  0.61415861  0.84155057  0.78931282    -0.82900
C2679       C  0.63346351  0.87045785  0.69775886     0.98200
C2680       C  0.63394430  0.86642168  0.81120123     1.04100
O2681       O  0.65961487  0.88909867  0.71817694    -0.78500
C2682       C  0.63459557  0.76715922  0.68834656     1.02400
C2683       C  0.64016019  0.57091979  0.59319511     0.85900
C2684       C  0.61269167  0.53761453  0.60974721    -0.54300
C2685       C  0.58456864  0.52077479  0.58574795     0.08800
C2686       C  0.58412753  0.54452396  0.55136132     0.19800
C2687       C  0.64423440  0.56610456  0.54855273    -0.55100
C2688       C  0.61572395  0.55354761  0.52561451     0.08900
C2689       C  0.62269477  0.59150265  0.59415823    -0.54600
C2690       C  0.59304087  0.57867712  0.57288882     0.09500
H2691       H  0.61672201  0.52841937  0.63829170     0.14000
H2692       H  0.56026086  0.53338123  0.53426525    -0.00200
H2693       H  0.66882523  0.57343456  0.53682926     0.14300
H2694       H  0.63291231  0.61339125  0.61308985     0.14100
C2695       C  0.92948957  0.85687633  0.90570483     0.85900
C2696       C  0.96716160  0.87628733  0.90359851    -0.54300
C2697       C  0.98315156  0.90667080  0.92335629     0.08800
C2698       C  0.95781254  0.91314937  0.94796162     0.19800
C2699       C  0.92384709  0.85157662  0.95138906    -0.55100
C2700       C  0.93881516  0.88063450  0.97430636     0.08900
C2701       C  0.91954088  0.88254300  0.89295193    -0.54600
C2702       C  0.93067668  0.91052126  0.91721526     0.09500
H2703       H  0.97970578  0.86314205  0.89354598     0.14000
H2704       H  0.97002954  0.93713185  0.96501197    -0.00200
H2705       H  0.90995849  0.82620819  0.96353538     0.14300
H2706       H  0.90295701  0.87677134  0.86725403     0.14100
C2707       C  0.64581863  0.57151975  0.91494558     0.85900
C2708       C  0.62607841  0.58943037  0.91081516    -0.54300
C2709       C  0.59494196  0.57403819  0.92840930     0.08800
C2710       C  0.58779100  0.54153234  0.95265743     0.19800
C2711       C  0.64869804  0.56947684  0.96119619    -0.55100
C2712       C  0.61842784  0.55420985  0.98165450     0.08900
C2713       C  0.62295162  0.53544492  0.90275323    -0.54600
C2714       C  0.59281086  0.51841344  0.92234930     0.09500
H2715       H  0.63820071  0.61388709  0.89614817     0.14000
H2716       H  0.56307441  0.52887211  0.96774956    -0.00200
H2717       H  0.67255146  0.58141075  0.97637849     0.14300
H2718       H  0.63238729  0.52475772  0.88105364     0.14100
C2719       C  0.57486909  0.92861314  0.91215151     0.85900
C2720       C  0.58659203  0.96459166  0.89926983    -0.54300
C2721       C  0.57458660  0.98143981  0.92186477     0.08800
C2722       C  0.54594954  0.95721408  0.95137924     0.19800
C2723       C  0.57800498  0.92835839  0.95826932    -0.55100
C2724       C  0.56313915  0.94330446  0.97924700     0.08900
C2725       C  0.53775876  0.91308666  0.90398868    -0.54600
C2726       C  0.52121656  0.92568661  0.92613386     0.09500
H2727       H  0.60411748  0.97550794  0.87450451     0.14000
H2728       H  0.53358897  0.96936757  0.96701473    -0.00200
H2729       H  0.59045345  0.91600597  0.97215399     0.14300
H2730       H  0.52620796  0.89497151  0.87988303     0.14100
C2731       C  0.57038541  0.92744980  0.59340736     0.85900
C2732       C  0.53339001  0.91195335  0.60055848    -0.54300
C2733       C  0.51689870  0.92403765  0.57696568     0.08800
C2734       C  0.54176447  0.95532914  0.55097371     0.19800
C2735       C  0.57553712  0.92763484  0.54789356    -0.55100
C2736       C  0.56011152  0.94118397  0.52486937     0.08900
C2737       C  0.58393315  0.96439435  0.60168787    -0.54600
C2738       C  0.56961305  0.98029992  0.58106280     0.09500
H2739       H  0.52192025  0.89227035  0.62327257     0.14000
H2740       H  0.52944386  0.96698336  0.53360787    -0.00200
H2741       H  0.59127640  0.91857268  0.53575403     0.14300
H2742       H  0.60611747  0.97707545  0.61974034     0.14100
C2743       C  0.92501948  0.85303118  0.58696514     0.85900
C2744       C  0.91101322  0.87555009  0.59664734    -0.54300
C2745       C  0.92554681  0.90654530  0.57792888     0.08800
C2746       C  0.95454516  0.91181644  0.54901846     0.19800
C2747       C  0.92190938  0.85036677  0.54073799    -0.55100
C2748       C  0.93739220  0.88084217  0.52010405     0.08900
C2749       C  0.96226123  0.87341690  0.59372739    -0.54600
C2750       C  0.97885074  0.90469465  0.57523968     0.09500
H2751       H  0.88911418  0.86504296  0.61566942     0.14000
H2752       H  0.96701236  0.93674863  0.53355521    -0.00200
H2753       H  0.90860103  0.82653123  0.52569322     0.14300
H2754       H  0.97356521  0.86171527  0.61138070     0.14100
C2755       C  0.85616167  0.92760093  0.59263248     0.85900
C2756       C  0.87869168  0.96485403  0.60012469    -0.54300
C2757       C  0.90691042  0.98114893  0.57660758     0.08800
C2758       C  0.91228992  0.95580895  0.55055901     0.19800
C2759       C  0.85150782  0.92406510  0.54661673    -0.55100
C2760       C  0.88048973  0.93822834  0.52402869     0.08900
C2761       C  0.87990777  0.91522693  0.60410297    -0.54600
C2762       C  0.90829616  0.92720883  0.58053494     0.09500
H2763       H  0.87425299  0.97646683  0.62586055     0.14000
H2764       H  0.93618631  0.96786818  0.53364389    -0.00200
H2765       H  0.82646118  0.91095247  0.53412822     0.14300
H2766       H  0.87354929  0.89798500  0.62944833     0.14100
C2767       C  0.56521960  0.63686245  0.90228976     0.85900
C2768       C  0.53092265  0.60839111  0.88939618    -0.54300
C2769       C  0.51559674  0.58192037  0.91654618     0.08800
C2770       C  0.54110682  0.58281231  0.94892305     0.19800
C2771       C  0.56167299  0.64303931  0.94694167    -0.55100
C2772       C  0.55103422  0.61557304  0.97219559     0.08900
C2773       C  0.58465139  0.61870652  0.90041307    -0.54600
C2774       C  0.57389004  0.59093064  0.92526235     0.09500
H2775       H  0.51856893  0.60958798  0.86192991     0.14000
H2776       H  0.53112009  0.55957823  0.96773617    -0.00200
H2777       H  0.56856896  0.66821985  0.95687754     0.14300
H2778       H  0.60416181  0.62695245  0.87800130     0.14100
C2779       C  0.92634609  0.57092831  0.91034015     0.85900
C2780       C  0.91089923  0.53366653  0.90266756    -0.54300
C2781       C  0.92315186  0.51672708  0.92494790     0.08800
C2782       C  0.95390725  0.54132910  0.95150040     0.19800
C2783       C  0.92630033  0.57535604  0.95594467    -0.55100
C2784       C  0.94064147  0.56023741  0.97843225     0.08900
C2785       C  0.96331818  0.58507884  0.90227884    -0.54600
C2786       C  0.97852996  0.56948431  0.92174247     0.09500
H2787       H  0.89118569  0.52258024  0.88035584     0.14000
H2788       H  0.96549754  0.52873053  0.96845636    -0.00200
H2789       H  0.91625721  0.59030961  0.96822588     0.14300
H2790       H  0.97723995  0.60963787  0.88804066     0.14100
C2791       C  0.85524114  0.92522321  0.91088789     0.85900
C2792       C  0.87813809  0.91162334  0.90194656    -0.54300
C2793       C  0.90844847  0.92632373  0.92148053     0.08800
C2794       C  0.91242691  0.95516013  0.95062281     0.19800
C2795       C  0.85138665  0.92230375  0.95714630    -0.55100
C2796       C  0.88099056  0.93813948  0.97871926     0.08900
C2797       C  0.87548710  0.96308088  0.90424564    -0.54600
C2798       C  0.90567231  0.97984640  0.92435691     0.09500
H2799       H  0.86859668  0.89011097  0.88213772     0.14000
H2800       H  0.93672535  0.96775862  0.96676315    -0.00200
H2801       H  0.82716075  0.91052548  0.97134737     0.14300
H2802       H  0.86438329  0.97475432  0.88622361     0.14100
C2803       C  0.92745356  0.57243978  0.59011449     0.85900
C2804       C  0.96302285  0.58410057  0.60282607    -0.54300
C2805       C  0.97970503  0.57138234  0.58145673     0.08800
C2806       C  0.95589555  0.54347122  0.55089264     0.19800
C2807       C  0.92906681  0.57788964  0.54397814    -0.55100
C2808       C  0.94297120  0.56196602  0.52265404     0.08900
C2809       C  0.90906277  0.53468675  0.59315204    -0.54600
C2810       C  0.92367154  0.51835330  0.57501633     0.09500
H2811       H  0.97381240  0.60326090  0.62583307     0.14000
H2812       H  0.96779081  0.53087578  0.53515717    -0.00200
H2813       H  0.91707728  0.59039235  0.52970181     0.14300
H2814       H  0.88428783  0.52270636  0.60611296     0.14100
C2815       C  0.57015445  0.64942176  0.58221819     0.85900
C2816       C  0.58753462  0.62909144  0.59021652    -0.54300
C2817       C  0.57423866  0.59820547  0.57154062     0.08800
C2818       C  0.54148886  0.58959896  0.54776926     0.19800
C2819       C  0.56760557  0.65059873  0.53633642    -0.55100
C2820       C  0.55290118  0.61977542  0.51753576     0.08900
C2821       C  0.53516379  0.62515530  0.59745993    -0.54600
C2822       C  0.51841045  0.59416549  0.57869004     0.09500
H2823       H  0.60833331  0.63906377  0.61081527     0.14000
H2824       H  0.52931293  0.56431120  0.53376378    -0.00200
H2825       H  0.57806266  0.67469343  0.52069333     0.14300
H2826       H  0.52535296  0.63312126  0.62171497     0.14100
Fe2827     Fe  0.87919763  0.68927436  0.74498170     1.65800
Fe2828     Fe  0.80541105  0.61489326  0.75001465     1.73200
Fe2829     Fe  0.80575197  0.68994302  0.75241461     1.54400
O2830       O  0.84048638  0.72674806  0.79045555    -0.82300
O2831       O  0.77483129  0.61304291  0.70291764    -0.80600
O2832       O  0.88543216  0.72057525  0.79294343    -0.84800
O2833       O  0.88045644  0.72439688  0.70441727    -0.79600
O2834       O  0.77912747  0.66341026  0.80286380    -0.81400
O2835       O  0.83615763  0.61017808  0.70797468    -0.84100
C2836       C  0.85983015  0.73260426  0.69027994     0.96600
C2837       C  0.86958286  0.73529139  0.80370963     1.04100
O2838       O  0.83015331  0.66475559  0.74923447    -1.13100
O2839       O  0.83404632  0.61217250  0.79700973    -0.75600
O2840       O  0.88412191  0.65721917  0.78522959    -0.79000
O2841       O  0.82977168  0.71958564  0.70234941    -0.79700
C2842       C  0.86546292  0.62937908  0.80326899     0.95500
O2843       O  0.87942393  0.66142875  0.69615041    -0.77700
O2844       O  0.77063273  0.61151959  0.79210355    -0.82900
C2845       C  0.76014768  0.62989510  0.69574009     0.98200
C2846       C  0.76445490  0.63200371  0.81071999     1.04100
O2847       O  0.76759141  0.65690392  0.71449657    -0.78500
C2848       C  0.86278110  0.63006019  0.68884884     1.02400
C2849       C  0.88005297  0.58818498  0.67615295    -0.06400
C2850       C  0.87710359  0.61524412  0.66087704    -0.00400
C2851       C  0.89110937  0.62910505  0.62257153    -0.09000
C2852       C  0.90756182  0.61508750  0.60094188    -0.06400
C2853       C  0.91121148  0.58813445  0.61654959    -0.00400
C2854       C  0.89935494  0.57647484  0.65695897    -0.08900
C2855       C  0.90592411  0.55232336  0.68277375     0.61500
H2856       H  0.86930703  0.57774899  0.70559230     0.12200
H2857       H  0.91877029  0.62634771  0.57222717     0.12200
C2858       C  0.88726146  0.65739643  0.60367636     0.61700
F2859       F  0.91504023  0.56510844  0.72155008    -0.23500
F2860       F  0.93138897  0.54753846  0.66895011    -0.20800
F2861       F  0.87680803  0.52129486  0.68531130    -0.20500
F2862       F  0.90509153  0.68669847  0.62577915    -0.20500
F2863       F  0.85370486  0.64801816  0.60308832    -0.20900
F2864       F  0.89891899  0.66430952  0.56419981    -0.23500
C2865       C  0.86404139  0.59757203  0.86572495    -0.06400
C2866       C  0.88147061  0.61580014  0.83110669    -0.00400
C2867       C  0.91232771  0.61776122  0.82141803    -0.09000
C2868       C  0.92465128  0.60196899  0.84719048    -0.06400
C2869       C  0.90903389  0.58601744  0.88401875    -0.00400
C2870       C  0.87638409  0.58142758  0.89163303    -0.08900
C2871       C  0.85232757  0.55927894  0.92486864     0.61500
H2872       H  0.83983633  0.59509776  0.87203951     0.12200
H2873       H  0.94642928  0.60117340  0.83716841     0.12200
C2874       C  0.93239493  0.63584986  0.78362082     0.61700
F2875       F  0.82075351  0.53928795  0.90837167    -0.23500
F2876       F  0.85026714  0.57977601  0.95393752    -0.20800
F2877       F  0.86092359  0.53752155  0.94349709    -0.20500
F2878       F  0.94584553  0.67037326  0.78771321    -0.20500
F2879       F  0.91205511  0.62495372  0.74986922    -0.20900
F2880       F  0.95861031  0.62982799  0.77688619    -0.23500
C2881       C  0.88901149  0.79304589  0.67979900    -0.06400
C2882       C  0.87301868  0.76131458  0.66194238    -0.00400
C2883       C  0.87412999  0.75864879  0.61956305    -0.09000
C2884       C  0.89149591  0.78848220  0.59636173    -0.06400
C2885       C  0.90833029  0.82103311  0.61400127    -0.00400
C2886       C  0.90777611  0.82292810  0.65753380    -0.08900
C2887       C  0.92595307  0.85432551  0.68429765     0.61500
H2888       H  0.88762039  0.79444527  0.71246745     0.12200
H2889       H  0.89190007  0.78530854  0.56419286     0.12200
C2890       C  0.85758639  0.72532788  0.59711755     0.61700
F2891       F  0.90254814  0.85725808  0.70736429    -0.23500
F2892       F  0.94494583  0.88470148  0.66460899    -0.20800
F2893       F  0.94725940  0.84997018  0.71026836    -0.20500
F2894       F  0.83442847  0.72497513  0.56992790    -0.20500
F2895       F  0.84116730  0.69757703  0.62247543    -0.20900
F2896       F  0.88171585  0.72230154  0.57583772    -0.23500
C2897       C  0.70912011  0.59680870  0.90407148    -0.06400
C2898       C  0.67723459  0.58780846  0.88765527    -0.00400
C2899       C  0.67528058  0.59347301  0.84485444    -0.09000
C2900       C  0.70498675  0.60949350  0.82230557    -0.06400
C2901       C  0.73598480  0.61796671  0.83895773    -0.00400
C2902       C  0.73848620  0.61170953  0.88027467    -0.08900
C2903       C  0.77219537  0.62096313  0.89875034     0.61500
H2904       H  0.71140425  0.59149215  0.93535719     0.12200
H2905       H  0.70395267  0.61484346  0.79035544     0.12200
C2906       C  0.64385039  0.58501294  0.81988425     0.61700
F2907       F  0.76983106  0.61374524  0.93983264    -0.23500
F2908       F  0.79409166  0.65522413  0.89343488    -0.20800
F2909       F  0.78510341  0.60301283  0.87989664    -0.20500
F2910       F  0.64362773  0.61467769  0.81159010    -0.20500
F2911       F  0.61373123  0.56252224  0.83741754    -0.20900
F2912       F  0.64493003  0.57077793  0.78344249    -0.23500
C2913       C  0.86654691  0.76810321  0.86133763    -0.06400
C2914       C  0.88599061  0.76480237  0.83118473    -0.00400
C2915       C  0.91874731  0.79197167  0.82389359    -0.09000
C2916       C  0.93052739  0.82146339  0.84697734    -0.06400
C2917       C  0.91224994  0.82442069  0.87950400    -0.00400
C2918       C  0.87832714  0.79766192  0.88468717    -0.08900
C2919       C  0.85252638  0.79820278  0.91287505     0.61500
H2920       H  0.84111565  0.74749885  0.86578105     0.12200
H2921       H  0.95421493  0.84290216  0.83839347     0.12200
C2922       C  0.94132167  0.79041967  0.79143393     0.61700
F2923       F  0.82242241  0.78648616  0.89242429    -0.23500
F2924       F  0.86121204  0.82988128  0.92690903    -0.20800
F2925       F  0.84738910  0.77692746  0.94554271    -0.20500
F2926       F  0.92531065  0.78290827  0.75435541    -0.20500
F2927       F  0.94927858  0.76578468  0.80161679    -0.20900
F2928       F  0.97108875  0.82074580  0.78722195    -0.23500
C2929       C  0.71539938  0.58168150  0.65789162    -0.06400
C2930       C  0.73227875  0.61654697  0.66558050    -0.00400
C2931       C  0.72247548  0.63720363  0.64370937    -0.09000
C2932       C  0.69356818  0.62144738  0.61930406    -0.06400
C2933       C  0.67400504  0.58595492  0.61573395    -0.00400
C2934       C  0.68813694  0.56637255  0.63103416    -0.08900
C2935       C  0.67746887  0.53012324  0.61951554     0.61500
H2936       H  0.72409725  0.56600173  0.67235711     0.12200
H2937       H  0.68626574  0.63720712  0.60256497     0.12200
C2938       C  0.74233478  0.67565396  0.64514015     0.61700
F2939       F  0.65627732  0.51843475  0.58654978    -0.23500
F2940       F  0.66228033  0.50899247  0.65239817    -0.20800
F2941       F  0.70560926  0.52822159  0.60934720    -0.20500
F2942       F  0.77601309  0.68695221  0.63934099    -0.20500
F2943       F  0.73773326  0.68668766  0.68212806    -0.20900
F2944       F  0.73237425  0.69025627  0.61516222    -0.23500
C2945       C  0.60553768  0.87087941  0.63386989    -0.06400
C2946       C  0.61911547  0.88624184  0.67111126    -0.00400
C2947       C  0.61396195  0.91264351  0.68466550    -0.09000
C2948       C  0.59691109  0.92375999  0.65917438    -0.06400
C2949       C  0.58569599  0.91057078  0.62001223    -0.00400
C2950       C  0.58692212  0.88091934  0.60926790    -0.08900
C2951       C  0.56745519  0.85715962  0.57473637     0.61500
H2952       H  0.60798209  0.84939324  0.62491100     0.12200
H2953       H  0.59143820  0.94256620  0.67059259     0.12200
C2954       C  0.62472777  0.92806105  0.72661236     0.61700
F2955       F  0.55391020  0.82390227  0.58770175    -0.23500
F2956       F  0.58892387  0.86249123  0.54286180    -0.20800
F2957       F  0.54092448  0.86069918  0.56129601    -0.20500
F2958       F  0.65926169  0.94468729  0.72992908    -0.20500
F2959       F  0.61063125  0.90285466  0.75571638    -0.20900
F2960       F  0.61457361  0.95133940  0.73458879    -0.23500
C2961       C  0.77505717  0.86356441  0.65049935    -0.06400
C2962       C  0.76450544  0.88500290  0.66713932    -0.00400
C2963       C  0.78180338  0.91971968  0.65535343    -0.09000
C2964       C  0.80954281  0.93141226  0.62921311    -0.06400
C2965       C  0.82231397  0.91073437  0.61576570    -0.00400
C2966       C  0.80241014  0.87521032  0.62364221    -0.08900
C2967       C  0.80772315  0.84781277  0.60497874     0.61500
H2968       H  0.76122874  0.83681405  0.65796875     0.12200
H2969       H  0.82127636  0.95730191  0.61876467     0.12200
C2970       C  0.77221442  0.94510126  0.67082563     0.61700
F2971       F  0.77730225  0.82179018  0.59130982    -0.23500
F2972       F  0.82006848  0.83495643  0.63422508    -0.20800
F2973       F  0.82906657  0.85864721  0.57221804    -0.20500
F2974       F  0.77306218  0.94554908  0.71273693    -0.20500
F2975       F  0.74046588  0.93650415  0.65726436    -0.20900
F2976       F  0.79395921  0.97772315  0.65740969    -0.23500
C2977       C  0.63996125  0.91239687  0.85702332    -0.06400
C2978       C  0.61953716  0.87947941  0.84219386    -0.00400
C2979       C  0.58602908  0.86067217  0.85671458    -0.09000
C2980       C  0.57337327  0.87715168  0.88066396    -0.06400
C2981       C  0.59260494  0.91160371  0.89115420    -0.00400
C2982       C  0.62781988  0.92800434  0.88330325    -0.08900
C2983       C  0.65440955  0.96115694  0.90184068     0.61500
H2984       H  0.66613620  0.92629989  0.84831803     0.12200
H2985       H  0.54790634  0.86272857  0.89143618     0.12200
C2986       C  0.56330654  0.82330337  0.84765693     0.61700
F2987       F  0.68015261  0.95692771  0.91720923    -0.23500
F2988       F  0.64299424  0.97216759  0.93345094    -0.20800
F2989       F  0.66739158  0.98598439  0.87211262    -0.20500
F2990       F  0.58027985  0.80588096  0.85499737    -0.20500
F2991       F  0.55283607  0.81929586  0.80771144    -0.20900
F2992       F  0.53495556  0.80881178  0.87179344    -0.23500
C2993       C  0.79306380  0.88168450  0.90055657    -0.06400
C2994       C  0.82358807  0.90753540  0.88386385    -0.00400
C2995       C  0.82416286  0.91416007  0.84107570    -0.09000
C2996       C  0.79381486  0.89896627  0.81962824    -0.06400
C2997       C  0.76370726  0.87440323  0.83683864    -0.00400
C2998       C  0.76321912  0.86477799  0.87764171    -0.08900
C2999       C  0.73122283  0.83731473  0.89698421     0.61500
H3000       H  0.79249786  0.87343509  0.93133863     0.12200
H3001       H  0.79380001  0.90551660  0.78790112     0.12200
C3002       C  0.85484487  0.93659171  0.81490445     0.61700
F3003       F  0.73539870  0.83337451  0.93787663    -0.23500
F3004       F  0.72134935  0.80678139  0.87822545    -0.20800
F3005       F  0.70613323  0.84543076  0.89288005    -0.20500
F3006       F  0.88526221  0.94499076  0.83221461    -0.20500
F3007       F  0.85466595  0.96604244  0.80500359    -0.20900
F3008       F  0.85305626  0.91989087  0.77933578    -0.23500
C3009       C  0.62281459  0.70155105  0.60776940    -0.06400
C3010       C  0.58779833  0.68504453  0.60170804    -0.00400
C3011       C  0.57090736  0.70208982  0.61543319    -0.09000
C3012       C  0.58719604  0.72846720  0.64350986    -0.06400
C3013       C  0.62097130  0.74140103  0.65498326    -0.00400
C3014       C  0.63976013  0.72894068  0.63454001    -0.08900
C3015       C  0.67721865  0.74336298  0.64104740     0.61500
H3016       H  0.63696367  0.69209571  0.59210426     0.12200
H3017       H  0.57313586  0.73945814  0.65610111     0.12200
C3018       C  0.53683081  0.69532888  0.60029467     0.61700
F3019       F  0.69017188  0.72834150  0.61630388    -0.23500
F3020       F  0.68335217  0.73793760  0.68071622    -0.20800
F3021       F  0.69418027  0.77764749  0.63227981    -0.20500
F3022       F  0.51313870  0.67950226  0.63040637    -0.20500
F3023       F  0.52646665  0.67594025  0.56570437    -0.20900
F3024       F  0.53849806  0.72576291  0.59075161    -0.23500
C3025       C  0.62962808  0.72378890  0.85571872    -0.06400
C3026       C  0.60945718  0.73015410  0.82945044    -0.00400
C3027       C  0.57440167  0.70733549  0.82875675    -0.09000
C3028       C  0.56122717  0.67810431  0.85326727    -0.06400
C3029       C  0.58156273  0.67043729  0.87824405    -0.00400
C3030       C  0.61641773  0.69557057  0.88188451    -0.08900
C3031       C  0.64171756  0.69407598  0.91090321     0.61500
H3032       H  0.65632220  0.74170949  0.85622947     0.12200
H3033       H  0.53446643  0.66166963  0.85364609     0.12200
C3034       C  0.55079435  0.71296393  0.80149808     0.61700
F3035       F  0.65873521  0.68070498  0.89102099    -0.23500
F3036       F  0.62763298  0.67547168  0.94561867    -0.20800
F3037       F  0.66490742  0.72636510  0.92354127    -0.20500
F3038       F  0.56173403  0.71747512  0.76179330    -0.20500
F3039       F  0.54950623  0.74110511  0.81406839    -0.20900
F3040       F  0.51845859  0.68577504  0.80247543    -0.23500
loop_ 
_geom_bond_atom_site_label_1 
_geom_bond_atom_site_label_2 
_geom_bond_distance 
_geom_bond_site_symmetry_2 
_ccdc_geom_bond_type 
Fe1          O17   2.066       .  S
Fe1           O7   2.077       .  S
Fe1          O14   2.078       .  S
Fe1           O6   2.066       .  S
Fe1          O12   1.961       .  S
Fe2           O5   2.045       .  S
Fe2           O9   2.089       .  S
Fe2          O13   2.042       .  S
Fe2          O18   2.087       .  S
Fe2          O12   1.954       .  S
Fe3          O21   2.071       .  S
Fe3           O8   2.079       .  S
Fe3          O15   2.076       .  S
Fe3           O4   2.066       .  S
Fe3          O12   1.960       .  S
O4           C11   1.269       .  A
O5           C19   1.265       .  A
O6           C11   1.268       .  A
O7           C10   1.273       .  A
O8           C20   1.275       .  A
O9           C22   1.275       .  A
C10          O15   1.272       .  A
C10         C302   1.501       .  S
C11         C337   1.476       .  S
O13          C16   1.264       .  A
O14          C16   1.271       .  A
C16         C366   1.478       .  S
O17          C22   1.268       .  A
O18          C20   1.272       .  A
C19          O21   1.268       .  A
C19         C286   1.477       .  S
C20         C318   1.509       .  S
C22         C353   1.508       .  S
C23          C24   1.511       .  S
C23          C29   1.511       .  S
C23          C27   1.526       .  S
C23         C273   1.546       .  S
C24          H31   1.081       .  S
C24          C25   1.380       .  D
C25          C26   1.567       .  S
C25         C838   1.525   1_545  S
C26          C30   1.574       .  S
C26          C28   1.543       .  S
C26          H32   1.106       .  S
C27          H33   1.081       .  S
C27          C28   1.370       .  D
C28         C432   1.498   1_554  S
C29          H34   1.076       .  S
C29          C30   1.374       .  D
C30         C157   1.516       .  S
C35          C36   1.503       .  S
C35          C41   1.513       .  S
C35          C39   1.529       .  S
C35         C257   1.547       .  S
C36          H43   1.076       .  S
C36          C37   1.367       .  D
C37          C38   1.577       .  S
C37        C1586   1.513       .  S
C38          C42   1.562       .  S
C38          C40   1.555       .  S
C38          H44   1.107       .  S
C39          H45   1.079       .  S
C39          C40   1.380       .  D
C40         C468   1.503       .  S
C41          H46   1.082       .  S
C41          C42   1.375       .  D
C42         C133   1.524       .  S
C47          C48   1.500       .  S
C47          C53   1.499       .  S
C47          C51   1.535       .  S
C47         C238   1.549       .  S
C48          H55   1.078       .  S
C48          C49   1.373       .  D
C49          C50   1.554       .  S
C49         C114   1.512       .  S
C50          C54   1.557       .  S
C50          C52   1.559       .  S
C50          H56   1.105       .  S
C51          H57   1.077       .  S
C51          C52   1.386       .  D
C52         C408   1.498       .  S
C53          H58   1.075       .  S
C53          C54   1.369       .  D
C54         C821   1.509   1_545  S
C59          C60   1.509       .  S
C59          C65   1.518       .  S
C59          C63   1.524       .  S
C59         C321   1.557       .  S
C60          H67   1.075       .  S
C60          C61   1.379       .  D
C61          C62   1.562       .  S
C61         C814   1.510       .  S
C62          C66   1.552       .  S
C62          C64   1.548       .  S
C62          H68   1.105       .  S
C63          H69   1.081       .  S
C63          C64   1.378       .  D
C64         C456   1.502       .  S
C65          H70   1.078       .  S
C65          C66   1.377       .  D
C66        C1557   1.511   1_455  S
C71          C72   1.499       .  S
C71          C77   1.505       .  S
C71          C75   1.525       .  S
C71         C289   1.539       .  S
C72          H79   1.080       .  S
C72          C73   1.371       .  D
C73          C74   1.569       .  S
C73        C1610   1.518   1_455  S
C74          C78   1.575       .  S
C74          C76   1.558       .  S
C74          H80   1.106       .  S
C75          H81   1.079       .  S
C75          C76   1.373       .  D
C76         C444   1.503   1_554  S
C77          H82   1.069       .  S
C77          C78   1.374       .  D
C78         C785   1.520       .  S
C83          C84   1.500       .  S
C83          C89   1.501       .  S
C83          C87   1.536       .  S
C83         C225   1.541       .  S
C84          H91   1.076       .  S
C84          C85   1.366       .  D
C85          C86   1.567       .  S
C85         C102   1.515       .  S
C86          C90   1.571       .  S
C86          C88   1.561       .  S
C86          H92   1.106       .  S
C87          H93   1.073       .  S
C87          C88   1.380       .  D
C88         C420   1.503   1_554  S
C89          H94   1.077       .  S
C89          C90   1.373       .  D
C90        C1593   1.523       .  S
C95          C96   1.505       .  S
C95         C101   1.507       .  S
C95          C99   1.524       .  S
C95         C305   1.551       .  S
C96         H103   1.080       .  S
C96          C97   1.368       .  D
C97          C98   1.571       .  S
C97         C910   1.516       .  S
C98         C102   1.568       .  S
C98         C100   1.549       .  S
C98         H104   1.106       .  S
C99         H105   1.081       .  S
C99         C100   1.375       .  D
C100        C516   1.507   1_554  S
C101        H106   1.076       .  S
C101        C102   1.385       .  D
C107        C108   1.522       .  S
C107        C113   1.491       .  S
C107        C111   1.529       .  S
C107        C369   1.542       .  S
C108        H115   1.081       .  S
C108        C109   1.375       .  D
C109        C110   1.566       .  S
C109       C1646   1.522   1_455  S
C110        C114   1.579       .  S
C110        C112   1.544       .  S
C110        H116   1.106       .  S
C111        H117   1.081       .  S
C111        C112   1.372       .  D
C112        C540   1.502       .  S
C113        H118   1.077       .  S
C113        C114   1.371       .  D
C119        C120   1.513       .  S
C119        C125   1.512       .  S
C119        C123   1.514       .  S
C119        C209   1.552       .  S
C120        H127   1.079       .  S
C120        C121   1.373       .  D
C121        C122   1.560       .  S
C121        C898   1.514   1_545  S
C122        C126   1.562       .  S
C122        C124   1.564       .  S
C122        H128   1.106       .  S
C123        H129   1.073       .  S
C123        C124   1.376       .  D
C124        C528   1.501       .  S
C125        H130   1.081       .  S
C125        C126   1.374       .  D
C126       C1629   1.519       .  S
C131        C132   1.497       .  S
C131        C137   1.510       .  S
C131        C135   1.533       .  S
C131        C334   1.545       .  S
C132        H139   1.079       .  S
C132        C133   1.372       .  D
C133        C134   1.571       .  S
C134        C138   1.561       .  S
C134        C136   1.562       .  S
C134        H140   1.106       .  S
C135        H141   1.075       .  S
C135        C136   1.379       .  D
C136        C480   1.507       .  S
C137        H142   1.076       .  S
C137        C138   1.375       .  D
C138        C881   1.513       .  S
C143        C144   1.508       .  S
C143        C149   1.494       .  S
C143        C147   1.536       .  S
C143        C193   1.551       .  S
C144        H151   1.078       .  S
C144        C145   1.373       .  D
C145        C146   1.564       .  S
C145       C1682   1.517       .  S
C146        C150   1.567       .  S
C146        C148   1.556       .  S
C146        H152   1.106       .  S
C147        H153   1.076       .  S
C147        C148   1.385       .  D
C148        C504   1.505   1_554  S
C149        H154   1.078       .  S
C149        C150   1.372       .  D
C150        C857   1.515   1_545  S
C155        C156   1.520       .  S
C155        C161   1.518       .  S
C155        C159   1.519       .  S
C155        C350   1.555       .  S
C156        H163   1.074       .  S
C156        C157   1.378       .  D
C157        C158   1.560       .  S
C158        C162   1.560       .  S
C158        C160   1.554       .  S
C158        H164   1.106       .  S
C159        H165   1.081       .  S
C159        C160   1.375       .  D
C160        C492   1.502   1_554  S
C161        H166   1.075       .  S
C161        C162   1.377       .  D
C162       C1665   1.517   1_455  S
Fe167       O183   2.073       .  S
Fe167       O173   2.054       .  S
Fe167       O180   2.055       .  S
Fe167       O172   2.065       .  S
Fe167       O178   1.959       .  S
Fe168       O171   2.074       .  S
Fe168       O175   2.076       .  S
Fe168       O179   2.077       .  S
Fe168       O184   2.072       .  S
Fe168       O178   1.966       .  S
Fe169       O187   2.064       .  S
Fe169       O174   2.063       .  S
Fe169       O181   2.069       .  S
Fe169       O170   2.062       .  S
Fe169       O178   1.967       .  S
O170        C177   1.267       .  A
O171        C185   1.273       .  A
O172        C177   1.267       .  A
O173        C176   1.267       .  A
O174        C186   1.267       .  A
O175        C188   1.270       .  A
C176        O181   1.270       .  A
C176        C222   1.464       .  S
C177        C254   1.484       .  S
O179        C182   1.273       .  A
O180        C182   1.267       .  A
C182        C206   1.484       .  S
O183        C188   1.268       .  A
O184        C186   1.271       .  A
C185        O187   1.266       .  A
C185        C270   1.496       .  S
C186        C241   1.475       .  S
C188        C190   1.487       .  S
C189        C190   1.395       .  A
C189        C194   1.403       .  A
C189        H196   1.084       .  S
C190        C191   1.413       .  A
C191        C198   1.515       .  S
C191        C192   1.414       .  A
C192        C193   1.416       .  A
C192        H197   1.077       .  S
C193        C194   1.440       .  A
C194        C195   1.532       .  S
C195        F199   1.386       .  S
C195        F200   1.378       .  S
C195        F201   1.381       .  S
C198        F202   1.382       .  S
C198        F203   1.383       .  S
C198        F204   1.385       .  S
C205        C206   1.402       .  A
C205        C210   1.416       .  A
C205        H212   1.083       .  S
C206        C207   1.414       .  A
C207        C214   1.525       .  S
C207        C208   1.396       .  A
C208        C209   1.414       .  A
C208        H213   1.076       .  S
C209        C210   1.437       .  A
C210        C211   1.526       .  S
C211        F215   1.385       .  S
C211        F216   1.381       .  S
C211        F217   1.381       .  S
C214        F218   1.383       .  S
C214        F219   1.377       .  S
C214        F220   1.384       .  S
C221        C222   1.389       .  A
C221        C226   1.397       .  A
C221        H228   1.086       .  S
C222        C223   1.410       .  A
C223        C230   1.517       .  S
C223        C224   1.408       .  A
C224        C225   1.417       .  A
C224        H229   1.075       .  S
C225        C226   1.442       .  A
C226        C227   1.535       .  S
C227        F231   1.384       .  S
C227        F232   1.374       .  S
C227        F233   1.385       .  S
C230        F234   1.383       .  S
C230        F235   1.381       .  S
C230        F236   1.383       .  S
C237        C238   1.416       .  A
C237        C242   1.414       .  A
C237        H244   1.077       .  S
C238        C239   1.445       .  A
C239        C246   1.538       .  S
C239        C240   1.401       .  A
C240        C241   1.391       .  A
C240        H245   1.085       .  S
C241        C242   1.410       .  A
C242        C243   1.517       .  S
C243        F247   1.384       .  S
C243        F248   1.383       .  S
C243        F249   1.383       .  S
C246        F250   1.386       .  S
C246        F251   1.377       .  S
C246        F252   1.380       .  S
C253        C254   1.404       .  A
C253        C258   1.410       .  A
C253        H260   1.085       .  S
C254        C255   1.414       .  A
C255        C262   1.524       .  S
C255        C256   1.402       .  A
C256        C257   1.416       .  A
C256        H261   1.077       .  S
C257        C258   1.432       .  A
C258        C259   1.525       .  S
C259        F263   1.385       .  S
C259        F264   1.377       .  S
C259        F265   1.383       .  S
C262        F266   1.381       .  S
C262        F267   1.383       .  S
C262        F268   1.385       .  S
C269        C270   1.403       .  A
C269        C274   1.407       .  A
C269        H276   1.084       .  S
C270        C271   1.424       .  A
C271        C278   1.524       .  S
C271        C272   1.407       .  A
C272        C273   1.412       .  A
C272        H277   1.079       .  S
C273        C274   1.431       .  A
C274        C275   1.522       .  S
C275        F279   1.378       .  S
C275        F280   1.383       .  S
C275        F281   1.385       .  S
C278        F282   1.383       .  S
C278        F283   1.383       .  S
C278        F284   1.385       .  S
C285        C286   1.401       .  A
C285        C290   1.404       .  A
C285        H292   1.085       .  S
C286        C287   1.417       .  A
C287        C294   1.523       .  S
C287        C288   1.402       .  A
C288        C289   1.413       .  A
C288        H293   1.078       .  S
C289        C290   1.429       .  A
C290        C291   1.524       .  S
C291        F295   1.385       .  S
C291        F296   1.383       .  S
C291        F297   1.378       .  S
C294        F298   1.382       .  S
C294        F299   1.382       .  S
C294        F300   1.385       .  S
C301        C302   1.409       .  A
C301        C306   1.409       .  A
C301        H308   1.084       .  S
C302        C303   1.421       .  A
C303        C310   1.522       .  S
C303        C304   1.409       .  A
C304        C305   1.415       .  A
C304        H309   1.079       .  S
C305        C306   1.428       .  A
C306        C307   1.524       .  S
C307        F311   1.385       .  S
C307        F312   1.383       .  S
C307        F313   1.378       .  S
C310        F314   1.383       .  S
C310        F315   1.383       .  S
C310        F316   1.385       .  S
C317        C318   1.409       .  A
C317        C322   1.412       .  A
C317        H324   1.084       .  S
C318        C319   1.426       .  A
C319        C326   1.523       .  S
C319        C320   1.412       .  A
C320        C321   1.412       .  A
C320        H325   1.080       .  S
C321        C322   1.429       .  A
C322        C323   1.522       .  S
C323        F327   1.384       .  S
C323        F328   1.380       .  S
C323        F329   1.383       .  S
C326        F330   1.383       .  S
C326        F331   1.383       .  S
C326        F332   1.385       .  S
C333        C334   1.417       .  A
C333        C338   1.412       .  A
C333        H340   1.077       .  S
C334        C335   1.438       .  A
C335        C342   1.530       .  S
C335        C336   1.401       .  A
C336        C337   1.395       .  A
C336        H341   1.086       .  S
C337        C338   1.410       .  A
C338        C339   1.518       .  S
C339        F343   1.384       .  S
C339        F344   1.383       .  S
C339        F345   1.383       .  S
C342        F346   1.376       .  S
C342        F347   1.383       .  S
C342        F348   1.385       .  S
C349        C350   1.411       .  A
C349        C354   1.412       .  A
C349        H356   1.080       .  S
C350        C351   1.427       .  A
C351        C358   1.522       .  S
C351        C352   1.409       .  A
C352        C353   1.409       .  A
C352        H357   1.084       .  S
C353        C354   1.428       .  A
C354        C355   1.523       .  S
C355        F359   1.385       .  S
C355        F360   1.383       .  S
C355        F361   1.384       .  S
C358        F362   1.383       .  S
C358        F363   1.380       .  S
C358        F364   1.385       .  S
C365        C366   1.397       .  A
C365        C370   1.407       .  A
C365        H372   1.085       .  S
C366        C367   1.415       .  A
C367        C374   1.522       .  S
C367        C368   1.403       .  A
C368        C369   1.410       .  A
C368        H373   1.076       .  S
C369        C370   1.438       .  A
C370        C371   1.528       .  S
C371        F375   1.383       .  S
C371        F376   1.376       .  S
C371        F377   1.385       .  S
C374        F378   1.384       .  S
C374        F379   1.382       .  S
C374        F380   1.381       .  S
Fe381       O397   2.068       .  S
Fe381       O387   2.082       .  S
Fe381       O394   2.078       .  S
Fe381       O386   2.073       .  S
Fe381       O392   1.961       .  S
Fe382       O385   2.042       .  S
Fe382       O389   2.084       .  S
Fe382       O393   2.040       .  S
Fe382       O398   2.089       .  S
Fe382       O392   1.956       .  S
Fe383       O401   2.076       .  S
Fe383       O388   2.078       .  S
Fe383       O395   2.072       .  S
Fe383       O384   2.072       .  S
Fe383       O392   1.957       .  S
O384        C391   1.269       .  A
O385        C399   1.263       .  A
O386        C391   1.270       .  A
O387        C390   1.274       .  A
O388        C400   1.275       .  A
O389        C402   1.274       .  A
C390        O395   1.272       .  A
C390        C682   1.502       .  S
C391        C717   1.478       .  S
O393        C396   1.263       .  A
O394        C396   1.272       .  A
C396        C746   1.480       .  S
O397        C402   1.269       .  A
O398        C400   1.274       .  A
C399        O401   1.268       .  A
C399        C666   1.473       .  S
C400        C698   1.507       .  S
C402        C733   1.506       .  S
C403        C404   1.509       .  S
C403        C409   1.512       .  S
C403        C407   1.527       .  S
C403        C653   1.544       .  S
C404        H411   1.082       .  S
C404        C405   1.377       .  D
C405        C406   1.570       .  S
C405       C1218   1.527   1_545  S
C406        C410   1.574       .  S
C406        C408   1.545       .  S
C406        H412   1.105       .  S
C407        H413   1.082       .  S
C407        C408   1.369       .  D
C409        H414   1.077       .  S
C409        C410   1.375       .  D
C410        C537   1.516       .  S
C415        C416   1.503       .  S
C415        C421   1.512       .  S
C415        C419   1.534       .  S
C415        C637   1.548       .  S
C416        H423   1.072       .  S
C416        C417   1.368       .  D
C417        C418   1.578       .  S
C417       C1966   1.517       .  S
C418        C422   1.567       .  S
C418        C420   1.551       .  S
C418        H424   1.106       .  S
C419        H425   1.080       .  S
C419        C420   1.380       .  D
C421        H426   1.082       .  S
C421        C422   1.374       .  D
C422        C513   1.530       .  S
C427        C428   1.500       .  S
C427        C433   1.498       .  S
C427        C431   1.534       .  S
C427        C618   1.550       .  S
C428        H435   1.079       .  S
C428        C429   1.373       .  D
C429        C430   1.551       .  S
C429        C494   1.508       .  S
C430        C434   1.556       .  S
C430        C432   1.561       .  S
C430        H436   1.105       .  S
C431        H437   1.074       .  S
C431        C432   1.384       .  D
C433        H438   1.077       .  S
C433        C434   1.370       .  D
C434       C1201   1.509   1_545  S
C439        C440   1.509       .  S
C439        C445   1.518       .  S
C439        C443   1.524       .  S
C439        C701   1.556       .  S
C440        H447   1.075       .  S
C440        C441   1.379       .  D
C441        C442   1.564       .  S
C441       C1194   1.511       .  S
C442        C446   1.551       .  S
C442        C444   1.548       .  S
C442        H448   1.105       .  S
C443        H449   1.081       .  S
C443        C444   1.378       .  D
C445        H450   1.079       .  S
C445        C446   1.379       .  D
C446       C1937   1.511   1_455  S
C451        C452   1.498       .  S
C451        C457   1.505       .  S
C451        C455   1.525       .  S
C451        C669   1.538       .  S
C452        H459   1.079       .  S
C452        C453   1.371       .  D
C453        C454   1.568       .  S
C453       C1990   1.517   1_455  S
C454        C458   1.576       .  S
C454        C456   1.557       .  S
C454        H460   1.106       .  S
C455        H461   1.077       .  S
C455        C456   1.371       .  D
C457        H462   1.071       .  S
C457        C458   1.377       .  D
C458       C1165   1.521       .  S
C463        C464   1.498       .  S
C463        C469   1.502       .  S
C463        C467   1.535       .  S
C463        C605   1.545       .  S
C464        H471   1.075       .  S
C464        C465   1.366       .  D
C465        C466   1.567       .  S
C465        C482   1.512       .  S
C466        C470   1.568       .  S
C466        C468   1.558       .  S
C466        H472   1.106       .  S
C467        H473   1.071       .  S
C467        C468   1.379       .  D
C469        H474   1.077       .  S
C469        C470   1.377       .  D
C470       C1973   1.522       .  S
C475        C476   1.507       .  S
C475        C481   1.506       .  S
C475        C479   1.527       .  S
C475        C685   1.554       .  S
C476        H483   1.078       .  S
C476        C477   1.371       .  D
C477        C478   1.566       .  S
C477       C1290   1.515       .  S
C478        C482   1.564       .  S
C478        C480   1.548       .  S
C478        H484   1.106       .  S
C479        H485   1.081       .  S
C479        C480   1.376       .  D
C481        H486   1.076       .  S
C481        C482   1.384       .  D
C487        C488   1.518       .  S
C487        C493   1.491       .  S
C487        C491   1.529       .  S
C487        C749   1.534       .  S
C488        H495   1.083       .  S
C488        C489   1.374       .  D
C489        C490   1.569       .  S
C489       C2026   1.518   1_455  S
C490        C494   1.578       .  S
C490        C492   1.543       .  S
C490        H496   1.106       .  S
C491        H497   1.081       .  S
C491        C492   1.369       .  D
C493        H498   1.079       .  S
C493        C494   1.370       .  D
C499        C500   1.506       .  S
C499        C505   1.511       .  S
C499        C503   1.520       .  S
C499        C589   1.543       .  S
C500        H507   1.079       .  S
C500        C501   1.368       .  D
C501        C502   1.564       .  S
C501       C1278   1.512   1_545  S
C502        C506   1.568       .  S
C502        C504   1.566       .  S
C502        H508   1.106       .  S
C503        H509   1.080       .  S
C503        C504   1.376       .  D
C505        H510   1.079       .  S
C505        C506   1.376       .  D
C506       C2009   1.522       .  S
C511        C512   1.503       .  S
C511        C517   1.516       .  S
C511        C515   1.537       .  S
C511        C714   1.559       .  S
C512        H519   1.079       .  S
C512        C513   1.375       .  D
C513        C514   1.572       .  S
C514        C518   1.559       .  S
C514        C516   1.556       .  S
C514        H520   1.106       .  S
C515        H521   1.069       .  S
C515        C516   1.377       .  D
C517        H522   1.079       .  S
C517        C518   1.378       .  D
C518       C1261   1.515       .  S
C523        C524   1.508       .  S
C523        C529   1.495       .  S
C523        C527   1.532       .  S
C523        C573   1.548       .  S
C524        H531   1.078       .  S
C524        C525   1.375       .  D
C525        C526   1.567       .  S
C525       C2062   1.519       .  S
C526        C530   1.570       .  S
C526        C528   1.551       .  S
C526        H532   1.107       .  S
C527        H533   1.078       .  S
C527        C528   1.379       .  D
C529        H534   1.078       .  S
C529        C530   1.375       .  D
C530       C1237   1.517   1_545  S
C535        C536   1.518       .  S
C535        C541   1.516       .  S
C535        C539   1.520       .  S
C535        C730   1.551       .  S
C536        H543   1.075       .  S
C536        C537   1.379       .  D
C537        C538   1.564       .  S
C538        C542   1.560       .  S
C538        C540   1.555       .  S
C538        H544   1.106       .  S
C539        H545   1.081       .  S
C539        C540   1.374       .  D
C541        H546   1.074       .  S
C541        C542   1.375       .  D
C542       C2045   1.518   1_455  S
Fe547       O563   2.067       .  S
Fe547       O553   2.057       .  S
Fe547       O560   2.058       .  S
Fe547       O552   2.066       .  S
Fe547       O558   1.956       .  S
Fe548       O551   2.074       .  S
Fe548       O555   2.076       .  S
Fe548       O559   2.076       .  S
Fe548       O564   2.073       .  S
Fe548       O558   1.963       .  S
Fe549       O567   2.062       .  S
Fe549       O554   2.061       .  S
Fe549       O561   2.065       .  S
Fe549       O550   2.056       .  S
Fe549       O558   1.965       .  S
O550        C557   1.266       .  A
O551        C565   1.274       .  A
O552        C557   1.267       .  A
O553        C556   1.269       .  A
O554        C566   1.267       .  A
O555        C568   1.270       .  A
C556        O561   1.270       .  A
C556        C602   1.463       .  S
C557        C634   1.482       .  S
O559        C562   1.274       .  A
O560        C562   1.268       .  A
C562        C586   1.486       .  S
O563        C568   1.267       .  A
O564        C566   1.270       .  A
C565        O567   1.265       .  A
C565        C650   1.492       .  S
C566        C621   1.471       .  S
C568        C570   1.489       .  S
C569        C570   1.401       .  A
C569        C574   1.404       .  A
C569        H576   1.085       .  S
C570        C571   1.415       .  A
C571        C578   1.518       .  S
C571        C572   1.411       .  A
C572        C573   1.415       .  A
C572        H577   1.079       .  S
C573        C574   1.433       .  A
C574        C575   1.528       .  S
C575        F579   1.385       .  S
C575        F580   1.379       .  S
C575        F581   1.382       .  S
C578        F582   1.382       .  S
C578        F583   1.383       .  S
C578        F584   1.385       .  S
C585        C586   1.402       .  A
C585        C590   1.410       .  A
C585        H592   1.085       .  S
C586        C587   1.419       .  A
C587        C594   1.525       .  S
C587        C588   1.399       .  A
C588        C589   1.412       .  A
C588        H593   1.076       .  S
C589        C590   1.434       .  A
C590        C591   1.526       .  S
C591        F595   1.385       .  S
C591        F596   1.383       .  S
C591        F597   1.377       .  S
C594        F598   1.383       .  S
C594        F599   1.377       .  S
C594        F600   1.385       .  S
C601        C602   1.391       .  A
C601        C606   1.399       .  A
C601        H608   1.086       .  S
C602        C603   1.408       .  A
C603        C610   1.518       .  S
C603        C604   1.406       .  A
C604        C605   1.418       .  A
C604        H609   1.074       .  S
C605        C606   1.442       .  A
C606        C607   1.534       .  S
C607        F611   1.385       .  S
C607        F612   1.384       .  S
C607        F613   1.374       .  S
C610        F614   1.384       .  S
C610        F615   1.381       .  S
C610        F616   1.383       .  S
C617        C618   1.417       .  A
C617        C622   1.411       .  A
C617        H624   1.074       .  S
C618        C619   1.448       .  A
C619        C626   1.543       .  S
C619        C620   1.403       .  A
C620        C621   1.391       .  A
C620        H625   1.084       .  S
C621        C622   1.406       .  A
C622        C623   1.517       .  S
C623        F627   1.384       .  S
C623        F628   1.383       .  S
C623        F629   1.384       .  S
C626        F630   1.377       .  S
C626        F631   1.379       .  S
C626        F632   1.386       .  S
C633        C634   1.403       .  A
C633        C638   1.408       .  A
C633        H640   1.085       .  S
C634        C635   1.413       .  A
C635        C642   1.524       .  S
C635        C636   1.403       .  A
C636        C637   1.418       .  A
C636        H641   1.077       .  S
C637        C638   1.431       .  A
C638        C639   1.524       .  S
C639        F643   1.385       .  S
C639        F644   1.376       .  S
C639        F645   1.383       .  S
C642        F646   1.381       .  S
C642        F647   1.383       .  S
C642        F648   1.385       .  S
C649        C650   1.400       .  A
C649        C654   1.405       .  A
C649        H656   1.084       .  S
C650        C651   1.423       .  A
C651        C658   1.523       .  S
C651        C652   1.407       .  A
C652        C653   1.411       .  A
C652        H657   1.079       .  S
C653        C654   1.432       .  A
C654        C655   1.521       .  S
C655        F659   1.378       .  S
C655        F660   1.383       .  S
C655        F661   1.385       .  S
C658        F662   1.382       .  S
C658        F663   1.382       .  S
C658        F664   1.385       .  S
C665        C666   1.399       .  A
C665        C670   1.404       .  A
C665        H672   1.085       .  S
C666        C667   1.415       .  A
C667        C674   1.522       .  S
C667        C668   1.402       .  A
C668        C669   1.412       .  A
C668        H673   1.080       .  S
C669        C670   1.430       .  A
C670        C671   1.525       .  S
C671        F675   1.385       .  S
C671        F676   1.383       .  S
C671        F677   1.380       .  S
C674        F678   1.382       .  S
C674        F679   1.382       .  S
C674        F680   1.385       .  S
C681        C682   1.409       .  A
C681        C686   1.411       .  A
C681        H688   1.084       .  S
C682        C683   1.422       .  A
C683        C690   1.523       .  S
C683        C684   1.409       .  A
C684        C685   1.415       .  A
C684        H689   1.079       .  S
C685        C686   1.429       .  A
C686        C687   1.524       .  S
C687        F691   1.385       .  S
C687        F692   1.383       .  S
C687        F693   1.378       .  S
C690        F694   1.384       .  S
C690        F695   1.383       .  S
C690        F696   1.385       .  S
C697        C698   1.408       .  A
C697        C702   1.412       .  A
C697        H704   1.084       .  S
C698        C699   1.424       .  A
C699        C706   1.521       .  S
C699        C700   1.412       .  A
C700        C701   1.412       .  A
C700        H705   1.081       .  S
C701        C702   1.429       .  A
C702        C703   1.521       .  S
C703        F707   1.384       .  S
C703        F708   1.380       .  S
C703        F709   1.383       .  S
C706        F710   1.384       .  S
C706        F711   1.383       .  S
C706        F712   1.385       .  S
C713        C714   1.423       .  A
C713        C718   1.412       .  A
C713        H720   1.069       .  S
C714        C715   1.444       .  A
C715        C722   1.532       .  S
C715        C716   1.408       .  A
C716        C717   1.394       .  A
C716        H721   1.086       .  S
C717        C718   1.404       .  A
C718        C719   1.519       .  S
C719        F723   1.384       .  S
C719        F724   1.383       .  S
C719        F725   1.384       .  S
C722        F726   1.374       .  S
C722        F727   1.385       .  S
C722        F728   1.384       .  S
C729        C730   1.410       .  A
C729        C734   1.412       .  A
C729        H736   1.081       .  S
C730        C731   1.426       .  A
C731        C738   1.522       .  S
C731        C732   1.407       .  A
C732        C733   1.409       .  A
C732        H737   1.084       .  S
C733        C734   1.427       .  A
C734        C735   1.521       .  S
C735        F739   1.385       .  S
C735        F740   1.383       .  S
C735        F741   1.384       .  S
C738        F742   1.383       .  S
C738        F743   1.381       .  S
C738        F744   1.385       .  S
C745        C746   1.398       .  A
C745        C750   1.403       .  A
C745        H752   1.085       .  S
C746        C747   1.419       .  A
C747        C754   1.523       .  S
C747        C748   1.404       .  A
C748        C749   1.409       .  A
C748        H753   1.077       .  S
C749        C750   1.435       .  A
C750        C751   1.528       .  S
C751        F755   1.383       .  S
C751        F756   1.377       .  S
C751        F757   1.385       .  S
C754        F758   1.383       .  S
C754        F759   1.382       .  S
C754        F760   1.384       .  S
Fe761       O777   2.072       .  S
Fe761       O767   2.088       .  S
Fe761       O774   2.084       .  S
Fe761       O766   2.079       .  S
Fe761       O772   1.963       .  S
Fe762       O765   2.049       .  S
Fe762       O769   2.072       .  S
Fe762       O773   2.047       .  S
Fe762       O778   2.076       .  S
Fe762       O772   1.955       .  S
Fe763       O781   2.071       .  S
Fe763       O768   2.076       .  S
Fe763       O775   2.073       .  S
Fe763       O764   2.063       .  S
Fe763       O772   1.957       .  S
O764        C771   1.269       .  A
O765        C779   1.266       .  A
O766        C771   1.271       .  A
O767        C770   1.275       .  A
O768        C780   1.274       .  A
O769        C782   1.272       .  A
C770        O775   1.272       .  A
C770       C1062   1.504       .  S
C771       C1097   1.482       .  S
O773        C776   1.265       .  A
O774        C776   1.274       .  A
C776       C1126   1.484       .  S
O777        C782   1.269       .  A
O778        C780   1.269       .  A
C779        O781   1.268       .  A
C779       C1046   1.474       .  S
C780       C1078   1.506       .  S
C782       C1113   1.505       .  S
C783        C784   1.509       .  S
C783        C789   1.511       .  S
C783        C787   1.519       .  S
C783       C1033   1.542       .  S
C784        H791   1.080       .  S
C784        C785   1.378       .  D
C785        C786   1.563       .  S
C786        C790   1.573       .  S
C786        C788   1.552       .  S
C786        H792   1.106       .  S
C787        H793   1.081       .  S
C787        C788   1.368       .  D
C788       C1192   1.498   1_554  S
C789        H794   1.071       .  S
C789        C790   1.376       .  D
C790        C917   1.518       .  S
C795        C796   1.507       .  S
C795        C801   1.514       .  S
C795        C799   1.528       .  S
C795       C1017   1.552       .  S
C796        H803   1.077       .  S
C796        C797   1.368       .  D
C797        C798   1.573       .  S
C797       C2346   1.516       .  S
C798        C802   1.564       .  S
C798        C800   1.559       .  S
C798        H804   1.107       .  S
C799        H805   1.081       .  S
C799        C800   1.379       .  D
C800       C1228   1.505       .  S
C801        H806   1.081       .  S
C801        C802   1.376       .  D
C802        C893   1.526       .  S
C807        C808   1.496       .  S
C807        C813   1.509       .  S
C807        C811   1.541       .  S
C807        C998   1.542       .  S
C808        H815   1.080       .  S
C808        C809   1.370       .  D
C809        C810   1.564       .  S
C809        C874   1.506       .  S
C810        C814   1.558       .  S
C810        C812   1.550       .  S
C810        H816   1.106       .  S
C811        H817   1.077       .  S
C811        C812   1.386       .  D
C812       C1168   1.502       .  S
C813        H818   1.080       .  S
C813        C814   1.369       .  D
C819        C820   1.504       .  S
C819        C825   1.511       .  S
C819        C823   1.531       .  S
C819       C1081   1.551       .  S
C820        H827   1.078       .  S
C820        C821   1.376       .  D
C821        C822   1.567       .  S
C822        C826   1.561       .  S
C822        C824   1.537       .  S
C822        H828   1.106       .  S
C823        H829   1.081       .  S
C823        C824   1.378       .  D
C824       C1216   1.499       .  S
C825        H830   1.081       .  S
C825        C826   1.375       .  D
C826       C2317   1.512   1_455  S
C831        C832   1.502       .  S
C831        C837   1.503       .  S
C831        C835   1.520       .  S
C831       C1049   1.540       .  S
C832        H839   1.079       .  S
C832        C833   1.373       .  D
C833        C834   1.567       .  S
C833       C2370   1.522   1_455  S
C834        C838   1.578       .  S
C834        C836   1.564       .  S
C834        H840   1.107       .  S
C835        H841   1.076       .  S
C835        C836   1.371       .  D
C836       C1204   1.502   1_554  S
C837        H842   1.071       .  S
C837        C838   1.374       .  D
C843        C844   1.502       .  S
C843        C849   1.501       .  S
C843        C847   1.539       .  S
C843        C985   1.545       .  S
C844        H851   1.077       .  S
C844        C845   1.366       .  D
C845        C846   1.564       .  S
C845        C862   1.513       .  S
C846        C850   1.572       .  S
C846        C848   1.554       .  S
C846        H852   1.106       .  S
C847        H853   1.071       .  S
C847        C848   1.380       .  D
C848       C1180   1.503   1_554  S
C849        H854   1.078       .  S
C849        C850   1.375       .  D
C850       C2353   1.521       .  S
C855        C856   1.512       .  S
C855        C861   1.505       .  S
C855        C859   1.527       .  S
C855       C1065   1.557       .  S
C856        H863   1.079       .  S
C856        C857   1.370       .  D
C857        C858   1.562       .  S
C858        C862   1.568       .  S
C858        C860   1.547       .  S
C858        H864   1.106       .  S
C859        H865   1.081       .  S
C859        C860   1.376       .  D
C860       C1276   1.507   1_554  S
C861        H866   1.076       .  S
C861        C862   1.385       .  D
C867        C868   1.518       .  S
C867        C873   1.494       .  S
C867        C871   1.530       .  S
C867       C1129   1.540       .  S
C868        H875   1.082       .  S
C868        C869   1.373       .  D
C869        C870   1.566       .  S
C869       C2406   1.516   1_455  S
C870        C874   1.570       .  S
C870        C872   1.540       .  S
C870        H876   1.106       .  S
C871        H877   1.081       .  S
C871        C872   1.372       .  D
C872       C1300   1.498       .  S
C873        H878   1.080       .  S
C873        C874   1.373       .  D
C879        C880   1.505       .  S
C879        C885   1.516       .  S
C879        C883   1.517       .  S
C879        C969   1.546       .  S
C880        H887   1.078       .  S
C880        C881   1.370       .  D
C881        C882   1.561       .  S
C882        C886   1.558       .  S
C882        C884   1.569       .  S
C882        H888   1.106       .  S
C883        H889   1.080       .  S
C883        C884   1.378       .  D
C884       C1288   1.502       .  S
C885        H890   1.081       .  S
C885        C886   1.374       .  D
C886       C2389   1.516       .  S
C891        C892   1.501       .  S
C891        C897   1.515       .  S
C891        C895   1.534       .  S
C891       C1094   1.551       .  S
C892        H899   1.079       .  S
C892        C893   1.371       .  D
C893        C894   1.568       .  S
C894        C898   1.561       .  S
C894        C896   1.560       .  S
C894        H900   1.105       .  S
C895        H901   1.076       .  S
C895        C896   1.380       .  D
C896       C1240   1.507       .  S
C897        H902   1.075       .  S
C897        C898   1.376       .  D
C903        C904   1.509       .  S
C903        C909   1.497       .  S
C903        C907   1.537       .  S
C903        C953   1.556       .  S
C904        H911   1.079       .  S
C904        C905   1.374       .  D
C905        C906   1.567       .  S
C905       C2442   1.517       .  S
C906        C910   1.565       .  S
C906        C908   1.548       .  S
C906        H912   1.107       .  S
C907        H913   1.077       .  S
C907        C908   1.384       .  D
C908       C1264   1.505   1_554  S
C909        H914   1.077       .  S
C909        C910   1.377       .  D
C915        C916   1.514       .  S
C915        C921   1.515       .  S
C915        C919   1.520       .  S
C915       C1110   1.551       .  S
C916        H923   1.071       .  S
C916        C917   1.376       .  D
C917        C918   1.565       .  S
C918        C922   1.565       .  S
C918        C920   1.551       .  S
C918        H924   1.105       .  S
C919        H925   1.081       .  S
C919        C920   1.373       .  D
C920       C1252   1.498   1_554  S
C921        H926   1.075       .  S
C921        C922   1.378       .  D
C922       C2425   1.523   1_455  S
Fe927       O943   2.074       .  S
Fe927       O933   2.048       .  S
Fe927       O940   2.043       .  S
Fe927       O932   2.062       .  S
Fe927       O938   1.956       .  S
Fe928       O931   2.071       .  S
Fe928       O935   2.081       .  S
Fe928       O939   2.075       .  S
Fe928       O944   2.072       .  S
Fe928       O938   1.970       .  S
Fe929       O947   2.059       .  S
Fe929       O934   2.066       .  S
Fe929       O941   2.073       .  S
Fe929       O930   2.069       .  S
Fe929       O938   1.971       .  S
O930        C937   1.268       .  A
O931        C945   1.272       .  A
O932        C937   1.266       .  A
O933        C936   1.266       .  A
O934        C946   1.271       .  A
O935        C948   1.272       .  A
C936        O941   1.271       .  A
C936        C982   1.466       .  S
C937       C1014   1.489       .  S
O939        C942   1.271       .  A
O940        C942   1.264       .  A
C942        C966   1.483       .  S
O943        C948   1.269       .  A
O944        C946   1.270       .  A
C945        O947   1.265       .  A
C945       C1030   1.492       .  S
C946       C1001   1.473       .  S
C948        C950   1.492       .  S
C949        C950   1.398       .  A
C949        C954   1.406       .  A
C949        H956   1.085       .  S
C950        C951   1.416       .  A
C951        C958   1.518       .  S
C951        C952   1.415       .  A
C952        C953   1.417       .  A
C952        H957   1.078       .  S
C953        C954   1.437       .  A
C954        C955   1.528       .  S
C955        F959   1.386       .  S
C955        F960   1.378       .  S
C955        F961   1.383       .  S
C958        F962   1.382       .  S
C958        F963   1.383       .  S
C958        F964   1.385       .  S
C965        C966   1.402       .  A
C965        C970   1.413       .  A
C965        H972   1.084       .  S
C966        C967   1.417       .  A
C967        C974   1.526       .  S
C967        C968   1.396       .  A
C968        C969   1.411       .  A
C968        H973   1.075       .  S
C969        C970   1.435       .  A
C970        C971   1.525       .  S
C971        F975   1.385       .  S
C971        F976   1.383       .  S
C971        F977   1.377       .  S
C974        F978   1.384       .  S
C974        F979   1.379       .  S
C974        F980   1.382       .  S
C981        C982   1.392       .  A
C981        C986   1.399       .  A
C981        H988   1.086       .  S
C982        C983   1.409       .  A
C983        C990   1.519       .  S
C983        C984   1.408       .  A
C984        C985   1.419       .  A
C984        H989   1.074       .  S
C985        C986   1.442       .  A
C986        C987   1.534       .  S
C987        F991   1.384       .  S
C987        F992   1.373       .  S
C987        F993   1.384       .  S
C990        F994   1.383       .  S
C990        F995   1.381       .  S
C990        F996   1.384       .  S
C997        C998   1.416       .  A
C997       C1002   1.412       .  A
C997       H1004   1.078       .  S
C998        C999   1.440       .  A
C999       C1006   1.531       .  S
C999       C1000   1.401       .  A
C1000      C1001   1.392       .  A
C1000      H1005   1.086       .  S
C1001      C1002   1.411       .  A
C1002      C1003   1.517       .  S
C1003      F1007   1.385       .  S
C1003      F1008   1.383       .  S
C1003      F1009   1.382       .  S
C1006      F1010   1.383       .  S
C1006      F1011   1.376       .  S
C1006      F1012   1.385       .  S
C1013      C1014   1.404       .  A
C1013      C1018   1.412       .  A
C1013      H1020   1.085       .  S
C1014      C1015   1.416       .  A
C1015      C1022   1.526       .  S
C1015      C1016   1.403       .  A
C1016      C1017   1.417       .  A
C1016      H1021   1.074       .  S
C1017      C1018   1.434       .  A
C1018      C1019   1.526       .  S
C1019      F1023   1.384       .  S
C1019      F1024   1.374       .  S
C1019      F1025   1.383       .  S
C1022      F1026   1.382       .  S
C1022      F1027   1.383       .  S
C1022      F1028   1.384       .  S
C1029      C1030   1.403       .  A
C1029      C1034   1.405       .  A
C1029      H1036   1.084       .  S
C1030      C1031   1.423       .  A
C1031      C1038   1.523       .  S
C1031      C1032   1.405       .  A
C1032      C1033   1.410       .  A
C1032      H1037   1.079       .  S
C1033      C1034   1.429       .  A
C1034      C1035   1.523       .  S
C1035      F1039   1.378       .  S
C1035      F1040   1.383       .  S
C1035      F1041   1.385       .  S
C1038      F1042   1.381       .  S
C1038      F1043   1.383       .  S
C1038      F1044   1.385       .  S
C1045      C1046   1.400       .  A
C1045      C1050   1.406       .  A
C1045      H1052   1.085       .  S
C1046      C1047   1.415       .  A
C1047      C1054   1.523       .  S
C1047      C1048   1.400       .  A
C1048      C1049   1.413       .  A
C1048      H1053   1.080       .  S
C1049      C1050   1.430       .  A
C1050      C1051   1.523       .  S
C1051      F1055   1.385       .  S
C1051      F1056   1.383       .  S
C1051      F1057   1.380       .  S
C1054      F1058   1.382       .  S
C1054      F1059   1.381       .  S
C1054      F1060   1.385       .  S
C1061      C1062   1.407       .  A
C1061      C1066   1.412       .  A
C1061      H1068   1.084       .  S
C1062      C1063   1.422       .  A
C1063      C1070   1.523       .  S
C1063      C1064   1.410       .  A
C1064      C1065   1.416       .  A
C1064      H1069   1.078       .  S
C1065      C1066   1.431       .  A
C1066      C1067   1.524       .  S
C1067      F1071   1.385       .  S
C1067      F1072   1.383       .  S
C1067      F1073   1.377       .  S
C1070      F1074   1.384       .  S
C1070      F1075   1.383       .  S
C1070      F1076   1.385       .  S
C1077      C1078   1.407       .  A
C1077      C1082   1.410       .  A
C1077      H1084   1.084       .  S
C1078      C1079   1.426       .  A
C1079      C1086   1.523       .  S
C1079      C1080   1.409       .  A
C1080      C1081   1.411       .  A
C1080      H1085   1.079       .  S
C1081      C1082   1.430       .  A
C1082      C1083   1.523       .  S
C1083      F1087   1.385       .  S
C1083      F1088   1.379       .  S
C1083      F1089   1.383       .  S
C1086      F1090   1.383       .  S
C1086      F1091   1.384       .  S
C1086      F1092   1.385       .  S
C1093      C1094   1.420       .  A
C1093      C1098   1.415       .  A
C1093      H1100   1.077       .  S
C1094      C1095   1.438       .  A
C1095      C1102   1.531       .  S
C1095      C1096   1.402       .  A
C1096      C1097   1.396       .  A
C1096      H1101   1.086       .  S
C1097      C1098   1.410       .  A
C1098      C1099   1.518       .  S
C1099      F1103   1.385       .  S
C1099      F1104   1.383       .  S
C1099      F1105   1.383       .  S
C1102      F1106   1.377       .  S
C1102      F1107   1.383       .  S
C1102      F1108   1.386       .  S
C1109      C1110   1.412       .  A
C1109      C1114   1.411       .  A
C1109      H1116   1.080       .  S
C1110      C1111   1.425       .  A
C1111      C1118   1.522       .  S
C1111      C1112   1.407       .  A
C1112      C1113   1.410       .  A
C1112      H1117   1.084       .  S
C1113      C1114   1.425       .  A
C1114      C1115   1.523       .  S
C1115      F1119   1.385       .  S
C1115      F1120   1.383       .  S
C1115      F1121   1.383       .  S
C1118      F1122   1.383       .  S
C1118      F1123   1.380       .  S
C1118      F1124   1.385       .  S
C1125      C1126   1.399       .  A
C1125      C1130   1.406       .  A
C1125      H1132   1.085       .  S
C1126      C1127   1.419       .  A
C1127      C1134   1.522       .  S
C1127      C1128   1.405       .  A
C1128      C1129   1.410       .  A
C1128      H1133   1.077       .  S
C1129      C1130   1.435       .  A
C1130      C1131   1.527       .  S
C1131      F1135   1.383       .  S
C1131      F1136   1.376       .  S
C1131      F1137   1.385       .  S
C1134      F1138   1.383       .  S
C1134      F1139   1.381       .  S
C1134      F1140   1.383       .  S
Fe1141     O1157   2.071       .  S
Fe1141     O1147   2.086       .  S
Fe1141     O1154   2.078       .  S
Fe1141     O1146   2.078       .  S
Fe1141     O1152   1.962       .  S
Fe1142     O1145   2.052       .  S
Fe1142     O1149   2.077       .  S
Fe1142     O1153   2.047       .  S
Fe1142     O1158   2.079       .  S
Fe1142     O1152   1.958       .  S
Fe1143     O1161   2.071       .  S
Fe1143     O1148   2.072       .  S
Fe1143     O1155   2.065       .  S
Fe1143     O1144   2.067       .  S
Fe1143     O1152   1.955       .  S
O1144      C1151   1.269       .  A
O1145      C1159   1.267       .  A
O1146      C1151   1.270       .  A
O1147      C1150   1.274       .  A
O1148      C1160   1.273       .  A
O1149      C1162   1.272       .  A
C1150      O1155   1.270       .  A
C1150      C1442   1.498       .  S
C1151      C1477   1.482       .  S
O1153      C1156   1.265       .  A
O1154      C1156   1.273       .  A
C1156      C1506   1.482       .  S
O1157      C1162   1.269       .  A
O1158      C1160   1.270       .  A
C1159      O1161   1.268       .  A
C1159      C1426   1.480       .  S
C1160      C1458   1.501       .  S
C1162      C1493   1.506       .  S
C1163      C1164   1.509       .  S
C1163      C1169   1.512       .  S
C1163      C1167   1.521       .  S
C1163      C1413   1.545       .  S
C1164      H1171   1.079       .  S
C1164      C1165   1.378       .  D
C1165      C1166   1.565       .  S
C1166      C1170   1.575       .  S
C1166      C1168   1.555       .  S
C1166      H1172   1.106       .  S
C1167      H1173   1.081       .  S
C1167      C1168   1.368       .  D
C1169      H1174   1.071       .  S
C1169      C1170   1.377       .  D
C1170      C1297   1.523       .  S
C1175      C1176   1.507       .  S
C1175      C1181   1.515       .  S
C1175      C1179   1.527       .  S
C1175      C1397   1.549       .  S
C1176      H1183   1.078       .  S
C1176      C1177   1.367       .  D
C1177      C1178   1.572       .  S
C1177      C2726   1.514       .  S
C1178      C1182   1.559       .  S
C1178      C1180   1.558       .  S
C1178      H1184   1.107       .  S
C1179      H1185   1.080       .  S
C1179      C1180   1.380       .  D
C1181      H1186   1.082       .  S
C1181      C1182   1.374       .  D
C1182      C1273   1.520       .  S
C1187      C1188   1.496       .  S
C1187      C1193   1.509       .  S
C1187      C1191   1.538       .  S
C1187      C1378   1.543       .  S
C1188      H1195   1.078       .  S
C1188      C1189   1.371       .  D
C1189      C1190   1.564       .  S
C1189      C1254   1.509       .  S
C1190      C1194   1.558       .  S
C1190      C1192   1.549       .  S
C1190      H1196   1.106       .  S
C1191      H1197   1.076       .  S
C1191      C1192   1.383       .  D
C1193      H1198   1.080       .  S
C1193      C1194   1.370       .  D
C1199      C1200   1.505       .  S
C1199      C1205   1.508       .  S
C1199      C1203   1.529       .  S
C1199      C1461   1.549       .  S
C1200      H1207   1.080       .  S
C1200      C1201   1.375       .  D
C1201      C1202   1.566       .  S
C1202      C1206   1.565       .  S
C1202      C1204   1.539       .  S
C1202      H1208   1.106       .  S
C1203      H1209   1.081       .  S
C1203      C1204   1.377       .  D
C1205      H1210   1.079       .  S
C1205      C1206   1.377       .  D
C1206      C2697   1.515   1_455  S
C1211      C1212   1.503       .  S
C1211      C1217   1.507       .  S
C1211      C1215   1.519       .  S
C1211      C1429   1.542       .  S
C1212      H1219   1.079       .  S
C1212      C1213   1.372       .  D
C1213      C1214   1.568       .  S
C1213      C2750   1.519   1_455  S
C1214      C1218   1.574       .  S
C1214      C1216   1.564       .  S
C1214      H1220   1.106       .  S
C1215      H1221   1.078       .  S
C1215      C1216   1.370       .  D
C1217      H1222   1.068       .  S
C1217      C1218   1.374       .  D
C1223      C1224   1.501       .  S
C1223      C1229   1.496       .  S
C1223      C1227   1.537       .  S
C1223      C1365   1.546       .  S
C1224      H1231   1.077       .  S
C1224      C1225   1.368       .  D
C1225      C1226   1.559       .  S
C1225      C1242   1.510       .  S
C1226      C1230   1.569       .  S
C1226      C1228   1.561       .  S
C1226      H1232   1.106       .  S
C1227      H1233   1.074       .  S
C1227      C1228   1.384       .  D
C1229      H1234   1.078       .  S
C1229      C1230   1.370       .  D
C1230      C2733   1.518       .  S
C1235      C1236   1.511       .  S
C1235      C1241   1.504       .  S
C1235      C1239   1.527       .  S
C1235      C1445   1.552       .  S
C1236      H1243   1.080       .  S
C1236      C1237   1.370       .  D
C1237      C1238   1.565       .  S
C1238      C1242   1.568       .  S
C1238      C1240   1.549       .  S
C1238      H1244   1.106       .  S
C1239      H1245   1.081       .  S
C1239      C1240   1.375       .  D
C1241      H1246   1.077       .  S
C1241      C1242   1.382       .  D
C1247      C1248   1.518       .  S
C1247      C1253   1.492       .  S
C1247      C1251   1.529       .  S
C1247      C1509   1.538       .  S
C1248      H1255   1.082       .  S
C1248      C1249   1.374       .  D
C1249      C1250   1.565       .  S
C1249      C2786   1.515   1_455  S
C1250      C1254   1.573       .  S
C1250      C1252   1.542       .  S
C1250      H1256   1.106       .  S
C1251      H1257   1.081       .  S
C1251      C1252   1.371       .  D
C1253      H1258   1.078       .  S
C1253      C1254   1.372       .  D
C1259      C1260   1.512       .  S
C1259      C1265   1.517       .  S
C1259      C1263   1.512       .  S
C1259      C1349   1.549       .  S
C1260      H1267   1.079       .  S
C1260      C1261   1.371       .  D
C1261      C1262   1.562       .  S
C1262      C1266   1.560       .  S
C1262      C1264   1.571       .  S
C1262      H1268   1.106       .  S
C1263      H1269   1.074       .  S
C1263      C1264   1.374       .  D
C1265      H1270   1.080       .  S
C1265      C1266   1.375       .  D
C1266      C2769   1.519       .  S
C1271      C1272   1.501       .  S
C1271      C1277   1.514       .  S
C1271      C1275   1.532       .  S
C1271      C1474   1.550       .  S
C1272      H1279   1.079       .  S
C1272      C1273   1.372       .  D
C1273      C1274   1.565       .  S
C1274      C1278   1.557       .  S
C1274      C1276   1.563       .  S
C1274      H1280   1.106       .  S
C1275      H1281   1.075       .  S
C1275      C1276   1.379       .  D
C1277      H1282   1.078       .  S
C1277      C1278   1.378       .  D
C1283      C1284   1.507       .  S
C1283      C1289   1.495       .  S
C1283      C1287   1.537       .  S
C1283      C1333   1.549       .  S
C1284      H1291   1.079       .  S
C1284      C1285   1.374       .  D
C1285      C1286   1.570       .  S
C1285      C2822   1.524       .  S
C1286      C1290   1.568       .  S
C1286      C1288   1.550       .  S
C1286      H1292   1.106       .  S
C1287      H1293   1.077       .  S
C1287      C1288   1.382       .  D
C1289      H1294   1.077       .  S
C1289      C1290   1.373       .  D
C1295      C1296   1.517       .  S
C1295      C1301   1.513       .  S
C1295      C1299   1.520       .  S
C1295      C1490   1.552       .  S
C1296      H1303   1.071       .  S
C1296      C1297   1.376       .  D
C1297      C1298   1.565       .  S
C1298      C1302   1.565       .  S
C1298      C1300   1.553       .  S
C1298      H1304   1.105       .  S
C1299      H1305   1.081       .  S
C1299      C1300   1.372       .  D
C1301      H1306   1.075       .  S
C1301      C1302   1.379       .  D
C1302      C2805   1.521   1_455  S
Fe1307     O1323   2.064       .  S
Fe1307     O1313   2.050       .  S
Fe1307     O1320   2.045       .  S
Fe1307     O1312   2.054       .  S
Fe1307     O1318   1.959       .  S
Fe1308     O1311   2.077       .  S
Fe1308     O1315   2.078       .  S
Fe1308     O1319   2.079       .  S
Fe1308     O1324   2.068       .  S
Fe1308     O1318   1.971       .  S
Fe1309     O1327   2.063       .  S
Fe1309     O1314   2.062       .  S
Fe1309     O1321   2.072       .  S
Fe1309     O1310   2.075       .  S
Fe1309     O1318   1.972       .  S
O1310      C1317   1.270       .  A
O1311      C1325   1.273       .  A
O1312      C1317   1.265       .  A
O1313      C1316   1.265       .  A
O1314      C1326   1.269       .  A
O1315      C1328   1.272       .  A
C1316      O1321   1.269       .  A
C1316      C1362   1.468       .  S
C1317      C1394   1.489       .  S
O1319      C1322   1.271       .  A
O1320      C1322   1.263       .  A
C1322      C1346   1.483       .  S
O1323      C1328   1.268       .  A
O1324      C1326   1.269       .  A
C1325      O1327   1.266       .  A
C1325      C1410   1.497       .  S
C1326      C1381   1.470       .  S
C1328      C1330   1.486       .  S
C1329      C1330   1.398       .  A
C1329      C1334   1.403       .  A
C1329      H1336   1.085       .  S
C1330      C1331   1.415       .  A
C1331      C1338   1.518       .  S
C1331      C1332   1.412       .  A
C1332      C1333   1.415       .  A
C1332      H1337   1.079       .  S
C1333      C1334   1.436       .  A
C1334      C1335   1.529       .  S
C1335      F1339   1.385       .  S
C1335      F1340   1.378       .  S
C1335      F1341   1.383       .  S
C1338      F1342   1.382       .  S
C1338      F1343   1.383       .  S
C1338      F1344   1.384       .  S
C1345      C1346   1.401       .  A
C1345      C1350   1.415       .  A
C1345      H1352   1.083       .  S
C1346      C1347   1.416       .  A
C1347      C1354   1.525       .  S
C1347      C1348   1.396       .  A
C1348      C1349   1.412       .  A
C1348      H1353   1.075       .  S
C1349      C1350   1.437       .  A
C1350      C1351   1.527       .  S
C1351      F1355   1.385       .  S
C1351      F1356   1.381       .  S
C1351      F1357   1.380       .  S
C1354      F1358   1.383       .  S
C1354      F1359   1.377       .  S
C1354      F1360   1.384       .  S
C1361      C1362   1.392       .  A
C1361      C1366   1.402       .  A
C1361      H1368   1.083       .  S
C1362      C1363   1.410       .  A
C1363      C1370   1.517       .  S
C1363      C1364   1.407       .  A
C1364      C1365   1.415       .  A
C1364      H1369   1.076       .  S
C1365      C1366   1.446       .  A
C1366      C1367   1.541       .  S
C1367      F1371   1.386       .  S
C1367      F1372   1.377       .  S
C1367      F1373   1.379       .  S
C1370      F1374   1.383       .  S
C1370      F1375   1.381       .  S
C1370      F1376   1.383       .  S
C1377      C1378   1.417       .  A
C1377      C1382   1.410       .  A
C1377      H1384   1.077       .  S
C1378      C1379   1.439       .  A
C1379      C1386   1.531       .  S
C1379      C1380   1.401       .  A
C1380      C1381   1.392       .  A
C1380      H1385   1.086       .  S
C1381      C1382   1.408       .  A
C1382      C1383   1.517       .  S
C1383      F1387   1.385       .  S
C1383      F1388   1.384       .  S
C1383      F1389   1.382       .  S
C1386      F1390   1.376       .  S
C1386      F1391   1.385       .  S
C1386      F1392   1.383       .  S
C1393      C1394   1.403       .  A
C1393      C1398   1.411       .  A
C1393      H1400   1.085       .  S
C1394      C1395   1.417       .  A
C1395      C1402   1.526       .  S
C1395      C1396   1.401       .  A
C1396      C1397   1.416       .  A
C1396      H1401   1.073       .  S
C1397      C1398   1.434       .  A
C1398      C1399   1.527       .  S
C1399      F1403   1.384       .  S
C1399      F1404   1.374       .  S
C1399      F1405   1.383       .  S
C1402      F1406   1.383       .  S
C1402      F1407   1.384       .  S
C1402      F1408   1.385       .  S
C1409      C1410   1.405       .  A
C1409      C1414   1.408       .  A
C1409      H1416   1.084       .  S
C1410      C1411   1.424       .  A
C1411      C1418   1.523       .  S
C1411      C1412   1.406       .  A
C1412      C1413   1.410       .  A
C1412      H1417   1.079       .  S
C1413      C1414   1.430       .  A
C1414      C1415   1.523       .  S
C1415      F1419   1.378       .  S
C1415      F1420   1.383       .  S
C1415      F1421   1.385       .  S
C1418      F1422   1.380       .  S
C1418      F1423   1.383       .  S
C1418      F1424   1.385       .  S
C1425      C1426   1.402       .  A
C1425      C1430   1.408       .  A
C1425      H1432   1.085       .  S
C1426      C1427   1.417       .  A
C1427      C1434   1.523       .  S
C1427      C1428   1.400       .  A
C1428      C1429   1.412       .  A
C1428      H1433   1.078       .  S
C1429      C1430   1.431       .  A
C1430      C1431   1.525       .  S
C1431      F1435   1.385       .  S
C1431      F1436   1.383       .  S
C1431      F1437   1.380       .  S
C1434      F1438   1.382       .  S
C1434      F1439   1.381       .  S
C1434      F1440   1.385       .  S
C1441      C1442   1.406       .  A
C1441      C1446   1.412       .  A
C1441      H1448   1.084       .  S
C1442      C1443   1.420       .  A
C1443      C1450   1.524       .  S
C1443      C1444   1.406       .  A
C1444      C1445   1.414       .  A
C1444      H1449   1.078       .  S
C1445      C1446   1.432       .  A
C1446      C1447   1.525       .  S
C1447      F1451   1.385       .  S
C1447      F1452   1.383       .  S
C1447      F1453   1.377       .  S
C1450      F1454   1.384       .  S
C1450      F1455   1.383       .  S
C1450      F1456   1.385       .  S
C1457      C1458   1.406       .  A
C1457      C1462   1.409       .  A
C1457      H1464   1.084       .  S
C1458      C1459   1.423       .  A
C1459      C1466   1.521       .  S
C1459      C1460   1.409       .  A
C1460      C1461   1.412       .  A
C1460      H1465   1.080       .  S
C1461      C1462   1.429       .  A
C1462      C1463   1.522       .  S
C1463      F1467   1.385       .  S
C1463      F1468   1.379       .  S
C1463      F1469   1.383       .  S
C1466      F1470   1.383       .  S
C1466      F1471   1.383       .  S
C1466      F1472   1.385       .  S
C1473      C1474   1.420       .  A
C1473      C1478   1.414       .  A
C1473      H1480   1.076       .  S
C1474      C1475   1.438       .  A
C1475      C1482   1.530       .  S
C1475      C1476   1.403       .  A
C1476      C1477   1.395       .  A
C1476      H1481   1.086       .  S
C1477      C1478   1.410       .  A
C1478      C1479   1.518       .  S
C1479      F1483   1.385       .  S
C1479      F1484   1.383       .  S
C1479      F1485   1.383       .  S
C1482      F1486   1.375       .  S
C1482      F1487   1.383       .  S
C1482      F1488   1.385       .  S
C1489      C1490   1.411       .  A
C1489      C1494   1.410       .  A
C1489      H1496   1.080       .  S
C1490      C1491   1.426       .  A
C1491      C1498   1.523       .  S
C1491      C1492   1.409       .  A
C1492      C1493   1.411       .  A
C1492      H1497   1.084       .  S
C1493      C1494   1.426       .  A
C1494      C1495   1.522       .  S
C1495      F1499   1.385       .  S
C1495      F1500   1.383       .  S
C1495      F1501   1.383       .  S
C1498      F1502   1.383       .  S
C1498      F1503   1.380       .  S
C1498      F1504   1.385       .  S
C1505      C1506   1.399       .  A
C1505      C1510   1.405       .  A
C1505      H1512   1.085       .  S
C1506      C1507   1.418       .  A
C1507      C1514   1.523       .  S
C1507      C1508   1.404       .  A
C1508      C1509   1.410       .  A
C1508      H1513   1.077       .  S
C1509      C1510   1.435       .  A
C1510      C1511   1.528       .  S
C1511      F1515   1.383       .  S
C1511      F1516   1.377       .  S
C1511      F1517   1.385       .  S
C1514      F1518   1.384       .  S
C1514      F1519   1.382       .  S
C1514      F1520   1.384       .  S
Fe1521     O1537   2.066       .  S
Fe1521     O1527   2.080       .  S
Fe1521     O1534   2.078       .  S
Fe1521     O1526   2.070       .  S
Fe1521     O1532   1.959       .  S
Fe1522     O1525   2.049       .  S
Fe1522     O1529   2.092       .  S
Fe1522     O1533   2.052       .  S
Fe1522     O1538   2.091       .  S
Fe1522     O1532   1.955       .  S
Fe1523     O1541   2.069       .  S
Fe1523     O1528   2.078       .  S
Fe1523     O1535   2.075       .  S
Fe1523     O1524   2.061       .  S
Fe1523     O1532   1.964       .  S
O1524      C1531   1.267       .  A
O1525      C1539   1.266       .  A
O1526      C1531   1.269       .  A
O1527      C1530   1.274       .  A
O1528      C1540   1.274       .  A
O1529      C1542   1.275       .  A
C1530      O1535   1.272       .  A
C1530      C1822   1.508       .  S
C1531      C1857   1.474       .  S
O1533      C1536   1.266       .  A
O1534      C1536   1.272       .  A
C1536      C1886   1.485       .  S
O1537      C1542   1.267       .  A
O1538      C1540   1.274       .  A
C1539      O1541   1.267       .  A
C1539      C1806   1.470       .  S
C1540      C1838   1.508       .  S
C1542      C1873   1.510       .  S
C1543      C1544   1.504       .  S
C1543      C1549   1.509       .  S
C1543      C1547   1.525       .  S
C1543      C1793   1.541       .  S
C1544      H1551   1.081       .  S
C1544      C1545   1.377       .  D
C1545      C1546   1.573       .  S
C1545      C2358   1.525   1_545  S
C1546      C1550   1.577       .  S
C1546      C1548   1.551       .  S
C1546      H1552   1.106       .  S
C1547      H1553   1.081       .  S
C1547      C1548   1.368       .  D
C1548      C1952   1.503   1_554  S
C1549      H1554   1.075       .  S
C1549      C1550   1.372       .  D
C1550      C1677   1.517       .  S
C1555      C1556   1.504       .  S
C1555      C1561   1.514       .  S
C1555      C1559   1.532       .  S
C1555      C1777   1.547       .  S
C1556      H1563   1.075       .  S
C1556      C1557   1.367       .  D
C1557      C1558   1.574       .  S
C1558      C1562   1.561       .  S
C1558      C1560   1.548       .  S
C1558      H1564   1.106       .  S
C1559      H1565   1.080       .  S
C1559      C1560   1.381       .  D
C1560      C1988   1.501       .  S
C1561      H1566   1.083       .  S
C1561      C1562   1.374       .  D
C1562      C1653   1.522       .  S
C1567      C1568   1.499       .  S
C1567      C1573   1.507       .  S
C1567      C1571   1.535       .  S
C1567      C1758   1.545       .  S
C1568      H1575   1.079       .  S
C1568      C1569   1.372       .  D
C1569      C1570   1.559       .  S
C1569      C1634   1.512       .  S
C1570      C1574   1.558       .  S
C1570      C1572   1.557       .  S
C1570      H1576   1.105       .  S
C1571      H1577   1.074       .  S
C1571      C1572   1.382       .  D
C1572      C1928   1.499       .  S
C1573      H1578   1.077       .  S
C1573      C1574   1.371       .  D
C1574      C2341   1.510   1_545  S
C1579      C1580   1.508       .  S
C1579      C1585   1.516       .  S
C1579      C1583   1.526       .  S
C1579      C1841   1.557       .  S
C1580      H1587   1.076       .  S
C1580      C1581   1.378       .  D
C1581      C1582   1.565       .  S
C1581      C2334   1.508       .  S
C1582      C1586   1.553       .  S
C1582      C1584   1.543       .  S
C1582      H1588   1.106       .  S
C1583      H1589   1.081       .  S
C1583      C1584   1.379       .  D
C1584      C1976   1.502       .  S
C1585      H1590   1.078       .  S
C1585      C1586   1.379       .  D
C1591      C1592   1.501       .  S
C1591      C1597   1.506       .  S
C1591      C1595   1.521       .  S
C1591      C1809   1.543       .  S
C1592      H1599   1.077       .  S
C1592      C1593   1.375       .  D
C1593      C1594   1.569       .  S
C1594      C1598   1.575       .  S
C1594      C1596   1.559       .  S
C1594      H1600   1.107       .  S
C1595      H1601   1.076       .  S
C1595      C1596   1.369       .  D
C1596      C1964   1.500   1_554  S
C1597      H1602   1.070       .  S
C1597      C1598   1.377       .  D
C1598      C2305   1.524       .  S
C1603      C1604   1.500       .  S
C1603      C1609   1.503       .  S
C1603      C1607   1.532       .  S
C1603      C1745   1.549       .  S
C1604      H1611   1.078       .  S
C1604      C1605   1.368       .  D
C1605      C1606   1.559       .  S
C1605      C1622   1.511       .  S
C1606      C1610   1.563       .  S
C1606      C1608   1.569       .  S
C1606      H1612   1.107       .  S
C1607      H1613   1.073       .  S
C1607      C1608   1.381       .  D
C1608      C1940   1.506   1_554  S
C1609      H1614   1.078       .  S
C1609      C1610   1.374       .  D
C1615      C1616   1.505       .  S
C1615      C1621   1.511       .  S
C1615      C1619   1.530       .  S
C1615      C1825   1.552       .  S
C1616      H1623   1.077       .  S
C1616      C1617   1.372       .  D
C1617      C1618   1.569       .  S
C1617      C2430   1.513       .  S
C1618      C1622   1.563       .  S
C1618      C1620   1.543       .  S
C1618      H1624   1.106       .  S
C1619      H1625   1.080       .  S
C1619      C1620   1.378       .  D
C1620      C2036   1.507   1_554  S
C1621      H1626   1.079       .  S
C1621      C1622   1.378       .  D
C1627      C1628   1.519       .  S
C1627      C1633   1.494       .  S
C1627      C1631   1.533       .  S
C1627      C1889   1.544       .  S
C1628      H1635   1.083       .  S
C1628      C1629   1.375       .  D
C1629      C1630   1.568       .  S
C1630      C1634   1.577       .  S
C1630      C1632   1.540       .  S
C1630      H1636   1.106       .  S
C1631      H1637   1.081       .  S
C1631      C1632   1.373       .  D
C1632      C2060   1.504       .  S
C1633      H1638   1.079       .  S
C1633      C1634   1.373       .  D
C1639      C1640   1.505       .  S
C1639      C1645   1.512       .  S
C1639      C1643   1.519       .  S
C1639      C1729   1.545       .  S
C1640      H1647   1.079       .  S
C1640      C1641   1.369       .  D
C1641      C1642   1.567       .  S
C1641      C2418   1.517   1_545  S
C1642      C1646   1.567       .  S
C1642      C1644   1.564       .  S
C1642      H1648   1.106       .  S
C1643      H1649   1.079       .  S
C1643      C1644   1.377       .  D
C1644      C2048   1.503       .  S
C1645      H1650   1.078       .  S
C1645      C1646   1.376       .  D
C1651      C1652   1.500       .  S
C1651      C1657   1.513       .  S
C1651      C1655   1.530       .  S
C1651      C1854   1.547       .  S
C1652      H1659   1.079       .  S
C1652      C1653   1.372       .  D
C1653      C1654   1.566       .  S
C1654      C1658   1.558       .  S
C1654      C1656   1.565       .  S
C1654      H1660   1.106       .  S
C1655      H1661   1.073       .  S
C1655      C1656   1.376       .  D
C1656      C2000   1.505       .  S
C1657      H1662   1.077       .  S
C1657      C1658   1.378       .  D
C1658      C2401   1.515       .  S
C1663      C1664   1.508       .  S
C1663      C1669   1.497       .  S
C1663      C1667   1.532       .  S
C1663      C1713   1.551       .  S
C1664      H1671   1.079       .  S
C1664      C1665   1.374       .  D
C1665      C1666   1.568       .  S
C1666      C1670   1.566       .  S
C1666      C1668   1.552       .  S
C1666      H1672   1.107       .  S
C1667      H1673   1.076       .  S
C1667      C1668   1.381       .  D
C1668      C2024   1.502   1_554  S
C1669      H1674   1.079       .  S
C1669      C1670   1.376       .  D
C1670      C2377   1.516   1_545  S
C1675      C1676   1.519       .  S
C1675      C1681   1.514       .  S
C1675      C1679   1.517       .  S
C1675      C1870   1.556       .  S
C1676      H1683   1.073       .  S
C1676      C1677   1.379       .  D
C1677      C1678   1.559       .  S
C1678      C1682   1.563       .  S
C1678      C1680   1.554       .  S
C1678      H1684   1.106       .  S
C1679      H1685   1.081       .  S
C1679      C1680   1.375       .  D
C1680      C2012   1.501   1_554  S
C1681      H1686   1.074       .  S
C1681      C1682   1.378       .  D
Fe1687     O1703   2.072       .  S
Fe1687     O1693   2.056       .  S
Fe1687     O1700   2.055       .  S
Fe1687     O1692   2.064       .  S
Fe1687     O1698   1.955       .  S
Fe1688     O1691   2.071       .  S
Fe1688     O1695   2.073       .  S
Fe1688     O1699   2.072       .  S
Fe1688     O1704   2.071       .  S
Fe1688     O1698   1.964       .  S
Fe1689     O1707   2.056       .  S
Fe1689     O1694   2.066       .  S
Fe1689     O1701   2.075       .  S
Fe1689     O1690   2.056       .  S
Fe1689     O1698   1.962       .  S
O1690      C1697   1.266       .  A
O1691      C1705   1.273       .  A
O1692      C1697   1.267       .  A
O1693      C1696   1.268       .  A
O1694      C1706   1.268       .  A
O1695      C1708   1.269       .  A
C1696      O1701   1.271       .  A
C1696      C1742   1.469       .  S
C1697      C1774   1.483       .  S
O1699      C1702   1.273       .  A
O1700      C1702   1.267       .  A
C1702      C1726   1.484       .  S
O1703      C1708   1.268       .  A
O1704      C1706   1.269       .  A
C1705      O1707   1.264       .  A
C1705      C1790   1.494       .  S
C1706      C1761   1.473       .  S
C1708      C1710   1.486       .  S
C1709      C1710   1.398       .  A
C1709      C1714   1.403       .  A
C1709      H1716   1.085       .  S
C1710      C1711   1.412       .  A
C1711      C1718   1.518       .  S
C1711      C1712   1.413       .  A
C1712      C1713   1.418       .  A
C1712      H1717   1.077       .  S
C1713      C1714   1.436       .  A
C1714      C1715   1.529       .  S
C1715      F1719   1.385       .  S
C1715      F1720   1.377       .  S
C1715      F1721   1.383       .  S
C1718      F1722   1.382       .  S
C1718      F1723   1.384       .  S
C1718      F1724   1.385       .  S
C1725      C1726   1.401       .  A
C1725      C1730   1.410       .  A
C1725      H1732   1.085       .  S
C1726      C1727   1.418       .  A
C1727      C1734   1.525       .  S
C1727      C1728   1.399       .  A
C1728      C1729   1.412       .  A
C1728      H1733   1.076       .  S
C1729      C1730   1.434       .  A
C1730      C1731   1.526       .  S
C1731      F1735   1.385       .  S
C1731      F1736   1.383       .  S
C1731      F1737   1.377       .  S
C1734      F1738   1.383       .  S
C1734      F1739   1.377       .  S
C1734      F1740   1.383       .  S
C1741      C1742   1.393       .  A
C1741      C1746   1.404       .  A
C1741      H1748   1.083       .  S
C1742      C1743   1.409       .  A
C1743      C1750   1.518       .  S
C1743      C1744   1.408       .  A
C1744      C1745   1.417       .  A
C1744      H1749   1.076       .  S
C1745      C1746   1.445       .  A
C1746      C1747   1.540       .  S
C1747      F1751   1.386       .  S
C1747      F1752   1.377       .  S
C1747      F1753   1.379       .  S
C1750      F1754   1.383       .  S
C1750      F1755   1.382       .  S
C1750      F1756   1.383       .  S
C1757      C1758   1.418       .  A
C1757      C1762   1.412       .  A
C1757      H1764   1.074       .  S
C1758      C1759   1.443       .  A
C1759      C1766   1.534       .  S
C1759      C1760   1.400       .  A
C1760      C1761   1.391       .  A
C1760      H1765   1.087       .  S
C1761      C1762   1.407       .  A
C1762      C1763   1.517       .  S
C1763      F1767   1.384       .  S
C1763      F1768   1.383       .  S
C1763      F1769   1.384       .  S
C1766      F1770   1.385       .  S
C1766      F1771   1.374       .  S
C1766      F1772   1.384       .  S
C1773      C1774   1.403       .  A
C1773      C1778   1.408       .  A
C1773      H1780   1.085       .  S
C1774      C1775   1.414       .  A
C1775      C1782   1.524       .  S
C1775      C1776   1.402       .  A
C1776      C1777   1.417       .  A
C1776      H1781   1.076       .  S
C1777      C1778   1.432       .  A
C1778      C1779   1.525       .  S
C1779      F1783   1.385       .  S
C1779      F1784   1.374       .  S
C1779      F1785   1.383       .  S
C1782      F1786   1.382       .  S
C1782      F1787   1.383       .  S
C1782      F1788   1.385       .  S
C1789      C1790   1.404       .  A
C1789      C1794   1.406       .  A
C1789      H1796   1.084       .  S
C1790      C1791   1.425       .  A
C1791      C1798   1.526       .  S
C1791      C1792   1.404       .  A
C1792      C1793   1.409       .  A
C1792      H1797   1.077       .  S
C1793      C1794   1.431       .  A
C1794      C1795   1.525       .  S
C1795      F1799   1.377       .  S
C1795      F1800   1.383       .  S
C1795      F1801   1.385       .  S
C1798      F1802   1.383       .  S
C1798      F1803   1.384       .  S
C1798      F1804   1.384       .  S
C1805      C1806   1.396       .  A
C1805      C1810   1.404       .  A
C1805      H1812   1.085       .  S
C1806      C1807   1.413       .  A
C1807      C1814   1.522       .  S
C1807      C1808   1.402       .  A
C1808      C1809   1.414       .  A
C1808      H1813   1.080       .  S
C1809      C1810   1.432       .  A
C1810      C1811   1.523       .  S
C1811      F1815   1.386       .  S
C1811      F1816   1.383       .  S
C1811      F1817   1.380       .  S
C1814      F1818   1.382       .  S
C1814      F1819   1.382       .  S
C1814      F1820   1.385       .  S
C1821      C1822   1.410       .  A
C1821      C1826   1.408       .  A
C1821      H1828   1.084       .  S
C1822      C1823   1.425       .  A
C1823      C1830   1.523       .  S
C1823      C1824   1.411       .  A
C1824      C1825   1.414       .  A
C1824      H1829   1.080       .  S
C1825      C1826   1.426       .  A
C1826      C1827   1.522       .  S
C1827      F1831   1.385       .  S
C1827      F1832   1.383       .  S
C1827      F1833   1.380       .  S
C1830      F1834   1.383       .  S
C1830      F1835   1.383       .  S
C1830      F1836   1.385       .  S
C1837      C1838   1.408       .  A
C1837      C1842   1.413       .  A
C1837      H1844   1.084       .  S
C1838      C1839   1.424       .  A
C1839      C1846   1.521       .  S
C1839      C1840   1.412       .  A
C1840      C1841   1.413       .  A
C1840      H1845   1.080       .  S
C1841      C1842   1.430       .  A
C1842      C1843   1.523       .  S
C1843      F1847   1.384       .  S
C1843      F1848   1.379       .  S
C1843      F1849   1.383       .  S
C1846      F1850   1.384       .  S
C1846      F1851   1.383       .  S
C1846      F1852   1.385       .  S
C1853      C1854   1.420       .  A
C1853      C1858   1.411       .  A
C1853      H1860   1.074       .  S
C1854      C1855   1.439       .  A
C1855      C1862   1.532       .  S
C1855      C1856   1.402       .  A
C1856      C1857   1.395       .  A
C1856      H1861   1.086       .  S
C1857      C1858   1.407       .  A
C1858      C1859   1.518       .  S
C1859      F1863   1.384       .  S
C1859      F1864   1.383       .  S
C1859      F1865   1.384       .  S
C1862      F1866   1.375       .  S
C1862      F1867   1.383       .  S
C1862      F1868   1.385       .  S
C1869      C1870   1.410       .  A
C1869      C1874   1.412       .  A
C1869      H1876   1.080       .  S
C1870      C1871   1.427       .  A
C1871      C1878   1.522       .  S
C1871      C1872   1.411       .  A
C1872      C1873   1.410       .  A
C1872      H1877   1.084       .  S
C1873      C1874   1.428       .  A
C1874      C1875   1.523       .  S
C1875      F1879   1.384       .  S
C1875      F1880   1.384       .  S
C1875      F1881   1.383       .  S
C1878      F1882   1.383       .  S
C1878      F1883   1.381       .  S
C1878      F1884   1.385       .  S
C1885      C1886   1.398       .  A
C1885      C1890   1.406       .  A
C1885      H1892   1.085       .  S
C1886      C1887   1.417       .  A
C1887      C1894   1.522       .  S
C1887      C1888   1.408       .  A
C1888      C1889   1.413       .  A
C1888      H1893   1.076       .  S
C1889      C1890   1.436       .  A
C1890      C1891   1.527       .  S
C1891      F1895   1.383       .  S
C1891      F1896   1.376       .  S
C1891      F1897   1.385       .  S
C1894      F1898   1.384       .  S
C1894      F1899   1.382       .  S
C1894      F1900   1.382       .  S
Fe1901     O1917   2.063       .  S
Fe1901     O1907   2.082       .  S
Fe1901     O1914   2.074       .  S
Fe1901     O1906   2.069       .  S
Fe1901     O1912   1.960       .  S
Fe1902     O1905   2.048       .  S
Fe1902     O1909   2.093       .  S
Fe1902     O1913   2.044       .  S
Fe1902     O1918   2.095       .  S
Fe1902     O1912   1.959       .  S
Fe1903     O1921   2.064       .  S
Fe1903     O1908   2.072       .  S
Fe1903     O1915   2.070       .  S
Fe1903     O1904   2.063       .  S
Fe1903     O1912   1.960       .  S
O1904      C1911   1.267       .  A
O1905      C1919   1.265       .  A
O1906      C1911   1.268       .  A
O1907      C1910   1.274       .  A
O1908      C1920   1.274       .  A
O1909      C1922   1.276       .  A
C1910      O1915   1.271       .  A
C1910      C2202   1.505       .  S
C1911      C2237   1.476       .  S
O1913      C1916   1.263       .  A
O1914      C1916   1.272       .  A
C1916      C2266   1.483       .  S
O1917      C1922   1.268       .  A
O1918      C1920   1.276       .  A
C1919      O1921   1.265       .  A
C1919      C2186   1.470       .  S
C1920      C2218   1.503       .  S
C1922      C2253   1.509       .  S
C1923      C1924   1.509       .  S
C1923      C1929   1.511       .  S
C1923      C1927   1.525       .  S
C1923      C2173   1.544       .  S
C1924      H1931   1.081       .  S
C1924      C1925   1.378       .  D
C1925      C1926   1.568       .  S
C1925      C2738   1.524   1_545  S
C1926      C1930   1.574       .  S
C1926      C1928   1.544       .  S
C1926      H1932   1.106       .  S
C1927      H1933   1.081       .  S
C1927      C1928   1.370       .  D
C1929      H1934   1.076       .  S
C1929      C1930   1.375       .  D
C1930      C2057   1.516       .  S
C1935      C1936   1.504       .  S
C1935      C1941   1.514       .  S
C1935      C1939   1.534       .  S
C1935      C2157   1.551       .  S
C1936      H1943   1.075       .  S
C1936      C1937   1.366       .  D
C1937      C1938   1.575       .  S
C1938      C1942   1.564       .  S
C1938      C1940   1.551       .  S
C1938      H1944   1.107       .  S
C1939      H1945   1.081       .  S
C1939      C1940   1.383       .  D
C1941      H1946   1.082       .  S
C1941      C1942   1.374       .  D
C1942      C2033   1.525       .  S
C1947      C1948   1.505       .  S
C1947      C1953   1.502       .  S
C1947      C1951   1.538       .  S
C1947      C2138   1.552       .  S
C1948      H1955   1.077       .  S
C1948      C1949   1.375       .  D
C1949      C1950   1.553       .  S
C1949      C2014   1.512       .  S
C1950      C1954   1.559       .  S
C1950      C1952   1.556       .  S
C1950      H1956   1.105       .  S
C1951      H1957   1.075       .  S
C1951      C1952   1.387       .  D
C1953      H1958   1.077       .  S
C1953      C1954   1.370       .  D
C1954      C2721   1.509   1_545  S
C1959      C1960   1.510       .  S
C1959      C1965   1.512       .  S
C1959      C1963   1.524       .  S
C1959      C2221   1.554       .  S
C1960      H1967   1.077       .  S
C1960      C1961   1.378       .  D
C1961      C1962   1.560       .  S
C1961      C2714   1.509       .  S
C1962      C1966   1.560       .  S
C1962      C1964   1.543       .  S
C1962      H1968   1.106       .  S
C1963      H1969   1.081       .  S
C1963      C1964   1.377       .  D
C1965      H1970   1.076       .  S
C1965      C1966   1.382       .  D
C1971      C1972   1.499       .  S
C1971      C1977   1.508       .  S
C1971      C1975   1.520       .  S
C1971      C2189   1.539       .  S
C1972      H1979   1.078       .  S
C1972      C1973   1.372       .  D
C1973      C1974   1.572       .  S
C1974      C1978   1.576       .  S
C1974      C1976   1.561       .  S
C1974      H1980   1.106       .  S
C1975      H1981   1.078       .  S
C1975      C1976   1.368       .  D
C1977      H1982   1.070       .  S
C1977      C1978   1.377       .  D
C1978      C2685   1.525       .  S
C1983      C1984   1.496       .  S
C1983      C1989   1.502       .  S
C1983      C1987   1.529       .  S
C1983      C2125   1.536       .  S
C1984      H1991   1.077       .  S
C1984      C1985   1.366       .  D
C1985      C1986   1.562       .  S
C1985      C2002   1.509       .  S
C1986      C1990   1.565       .  S
C1986      C1988   1.567       .  S
C1986      H1992   1.106       .  S
C1987      H1993   1.073       .  S
C1987      C1988   1.379       .  D
C1989      H1994   1.078       .  S
C1989      C1990   1.374       .  D
C1995      C1996   1.504       .  S
C1995      C2001   1.508       .  S
C1995      C1999   1.529       .  S
C1995      C2205   1.551       .  S
C1996      H2003   1.078       .  S
C1996      C1997   1.371       .  D
C1997      C1998   1.565       .  S
C1997      C2810   1.509       .  S
C1998      C2002   1.562       .  S
C1998      C2000   1.542       .  S
C1998      H2004   1.106       .  S
C1999      H2005   1.080       .  S
C1999      C2000   1.377       .  D
C2001      H2006   1.079       .  S
C2001      C2002   1.380       .  D
C2007      C2008   1.520       .  S
C2007      C2013   1.493       .  S
C2007      C2011   1.525       .  S
C2007      C2269   1.537       .  S
C2008      H2015   1.082       .  S
C2008      C2009   1.374       .  D
C2009      C2010   1.567       .  S
C2010      C2014   1.582       .  S
C2010      C2012   1.545       .  S
C2010      H2016   1.106       .  S
C2011      H2017   1.081       .  S
C2011      C2012   1.369       .  D
C2013      H2018   1.077       .  S
C2013      C2014   1.372       .  D
C2019      C2020   1.510       .  S
C2019      C2025   1.512       .  S
C2019      C2023   1.514       .  S
C2019      C2109   1.550       .  S
C2020      H2027   1.078       .  S
C2020      C2021   1.372       .  D
C2021      C2022   1.562       .  S
C2021      C2798   1.516   1_545  S
C2022      C2026   1.562       .  S
C2022      C2024   1.566       .  S
C2022      H2028   1.107       .  S
C2023      H2029   1.075       .  S
C2023      C2024   1.376       .  D
C2025      H2030   1.080       .  S
C2025      C2026   1.377       .  D
C2031      C2032   1.502       .  S
C2031      C2037   1.510       .  S
C2031      C2035   1.533       .  S
C2031      C2234   1.550       .  S
C2032      H2039   1.079       .  S
C2032      C2033   1.374       .  D
C2033      C2034   1.568       .  S
C2034      C2038   1.561       .  S
C2034      C2036   1.564       .  S
C2034      H2040   1.106       .  S
C2035      H2041   1.072       .  S
C2035      C2036   1.376       .  D
C2037      H2042   1.077       .  S
C2037      C2038   1.377       .  D
C2038      C2781   1.516       .  S
C2043      C2044   1.505       .  S
C2043      C2049   1.494       .  S
C2043      C2047   1.533       .  S
C2043      C2093   1.544       .  S
C2044      H2051   1.078       .  S
C2044      C2045   1.373       .  D
C2045      C2046   1.566       .  S
C2046      C2050   1.566       .  S
C2046      C2048   1.557       .  S
C2046      H2052   1.106       .  S
C2047      H2053   1.076       .  S
C2047      C2048   1.384       .  D
C2049      H2054   1.079       .  S
C2049      C2050   1.371       .  D
C2050      C2757   1.511   1_545  S
C2055      C2056   1.521       .  S
C2055      C2061   1.515       .  S
C2055      C2059   1.519       .  S
C2055      C2250   1.554       .  S
C2056      H2063   1.072       .  S
C2056      C2057   1.378       .  D
C2057      C2058   1.561       .  S
C2058      C2062   1.563       .  S
C2058      C2060   1.559       .  S
C2058      H2064   1.106       .  S
C2059      H2065   1.081       .  S
C2059      C2060   1.373       .  D
C2061      H2066   1.074       .  S
C2061      C2062   1.376       .  D
Fe2067     O2083   2.067       .  S
Fe2067     O2073   2.051       .  S
Fe2067     O2080   2.059       .  S
Fe2067     O2072   2.064       .  S
Fe2067     O2078   1.962       .  S
Fe2068     O2071   2.070       .  S
Fe2068     O2075   2.069       .  S
Fe2068     O2079   2.076       .  S
Fe2068     O2084   2.067       .  S
Fe2068     O2078   1.964       .  S
Fe2069     O2087   2.068       .  S
Fe2069     O2074   2.075       .  S
Fe2069     O2081   2.072       .  S
Fe2069     O2070   2.069       .  S
Fe2069     O2078   1.968       .  S
O2070      C2077   1.269       .  A
O2071      C2085   1.272       .  A
O2072      C2077   1.268       .  A
O2073      C2076   1.267       .  A
O2074      C2086   1.271       .  A
O2075      C2088   1.270       .  A
C2076      O2081   1.270       .  A
C2076      C2122   1.465       .  S
C2077      C2154   1.488       .  S
O2079      C2082   1.272       .  A
O2080      C2082   1.267       .  A
C2082      C2106   1.486       .  S
O2083      C2088   1.267       .  A
O2084      C2086   1.270       .  A
C2085      O2087   1.267       .  A
C2085      C2170   1.492       .  S
C2086      C2141   1.477       .  S
C2088      C2090   1.482       .  S
C2089      C2090   1.395       .  A
C2089      C2094   1.399       .  A
C2089      H2096   1.085       .  S
C2090      C2091   1.414       .  A
C2091      C2098   1.517       .  S
C2091      C2092   1.412       .  A
C2092      C2093   1.415       .  A
C2092      H2097   1.078       .  S
C2093      C2094   1.438       .  A
C2094      C2095   1.531       .  S
C2095      F2099   1.385       .  S
C2095      F2100   1.377       .  S
C2095      F2101   1.382       .  S
C2098      F2102   1.382       .  S
C2098      F2103   1.382       .  S
C2098      F2104   1.385       .  S
C2105      C2106   1.402       .  A
C2105      C2110   1.415       .  A
C2105      H2112   1.083       .  S
C2106      C2107   1.416       .  A
C2107      C2114   1.524       .  S
C2107      C2108   1.398       .  A
C2108      C2109   1.413       .  A
C2108      H2113   1.076       .  S
C2109      C2110   1.436       .  A
C2110      C2111   1.526       .  S
C2111      F2115   1.385       .  S
C2111      F2116   1.382       .  S
C2111      F2117   1.380       .  S
C2114      F2118   1.382       .  S
C2114      F2119   1.377       .  S
C2114      F2120   1.385       .  S
C2121      C2122   1.390       .  A
C2121      C2126   1.396       .  A
C2121      H2128   1.086       .  S
C2122      C2123   1.411       .  A
C2123      C2130   1.516       .  S
C2123      C2124   1.406       .  A
C2124      C2125   1.415       .  A
C2124      H2129   1.076       .  S
C2125      C2126   1.441       .  A
C2126      C2127   1.535       .  S
C2127      F2131   1.374       .  S
C2127      F2132   1.384       .  S
C2127      F2133   1.385       .  S
C2130      F2134   1.383       .  S
C2130      F2135   1.380       .  S
C2130      F2136   1.384       .  S
C2137      C2138   1.419       .  A
C2137      C2142   1.417       .  A
C2137      H2144   1.075       .  S
C2138      C2139   1.445       .  A
C2139      C2146   1.534       .  S
C2139      C2140   1.401       .  A
C2140      C2141   1.390       .  A
C2140      H2145   1.086       .  S
C2141      C2142   1.408       .  A
C2142      C2143   1.517       .  S
C2143      F2147   1.384       .  S
C2143      F2148   1.383       .  S
C2143      F2149   1.384       .  S
C2146      F2150   1.386       .  S
C2146      F2151   1.375       .  S
C2146      F2152   1.384       .  S
C2153      C2154   1.403       .  A
C2153      C2158   1.410       .  A
C2153      H2160   1.085       .  S
C2154      C2155   1.415       .  A
C2155      C2162   1.525       .  S
C2155      C2156   1.404       .  A
C2156      C2157   1.418       .  A
C2156      H2161   1.075       .  S
C2157      C2158   1.432       .  A
C2158      C2159   1.525       .  S
C2159      F2163   1.384       .  S
C2159      F2164   1.375       .  S
C2159      F2165   1.383       .  S
C2162      F2166   1.382       .  S
C2162      F2167   1.383       .  S
C2162      F2168   1.385       .  S
C2169      C2170   1.402       .  A
C2169      C2174   1.405       .  A
C2169      H2176   1.084       .  S
C2170      C2171   1.422       .  A
C2171      C2178   1.520       .  S
C2171      C2172   1.406       .  A
C2172      C2173   1.410       .  A
C2172      H2177   1.080       .  S
C2173      C2174   1.430       .  A
C2174      C2175   1.520       .  S
C2175      F2179   1.379       .  S
C2175      F2180   1.382       .  S
C2175      F2181   1.385       .  S
C2178      F2182   1.379       .  S
C2178      F2183   1.382       .  S
C2178      F2184   1.385       .  S
C2185      C2186   1.397       .  A
C2185      C2190   1.404       .  A
C2185      H2192   1.085       .  S
C2186      C2187   1.414       .  A
C2187      C2194   1.523       .  S
C2187      C2188   1.401       .  A
C2188      C2189   1.412       .  A
C2188      H2193   1.079       .  S
C2189      C2190   1.432       .  A
C2190      C2191   1.525       .  S
C2191      F2195   1.385       .  S
C2191      F2196   1.383       .  S
C2191      F2197   1.379       .  S
C2194      F2198   1.382       .  S
C2194      F2199   1.382       .  S
C2194      F2200   1.385       .  S
C2201      C2202   1.410       .  A
C2201      C2206   1.409       .  A
C2201      H2208   1.084       .  S
C2202      C2203   1.424       .  A
C2203      C2210   1.523       .  S
C2203      C2204   1.409       .  A
C2204      C2205   1.413       .  A
C2204      H2209   1.080       .  S
C2205      C2206   1.428       .  A
C2206      C2207   1.523       .  S
C2207      F2211   1.385       .  S
C2207      F2212   1.383       .  S
C2207      F2213   1.379       .  S
C2210      F2214   1.384       .  S
C2210      F2215   1.383       .  S
C2210      F2216   1.385       .  S
C2217      C2218   1.407       .  A
C2217      C2222   1.410       .  A
C2217      H2224   1.084       .  S
C2218      C2219   1.421       .  A
C2219      C2226   1.519       .  S
C2219      C2220   1.412       .  A
C2220      C2221   1.413       .  A
C2220      H2225   1.081       .  S
C2221      C2222   1.430       .  A
C2222      C2223   1.522       .  S
C2223      F2227   1.385       .  S
C2223      F2228   1.379       .  S
C2223      F2229   1.383       .  S
C2226      F2230   1.384       .  S
C2226      F2231   1.382       .  S
C2226      F2232   1.385       .  S
C2233      C2234   1.420       .  A
C2233      C2238   1.411       .  A
C2233      H2240   1.074       .  S
C2234      C2235   1.440       .  A
C2235      C2242   1.531       .  S
C2235      C2236   1.403       .  A
C2236      C2237   1.394       .  A
C2236      H2241   1.086       .  S
C2237      C2238   1.407       .  A
C2238      C2239   1.518       .  S
C2239      F2243   1.384       .  S
C2239      F2244   1.382       .  S
C2239      F2245   1.384       .  S
C2242      F2246   1.375       .  S
C2242      F2247   1.384       .  S
C2242      F2248   1.385       .  S
C2249      C2250   1.409       .  A
C2249      C2254   1.411       .  A
C2249      H2256   1.079       .  S
C2250      C2251   1.428       .  A
C2251      C2258   1.523       .  S
C2251      C2252   1.410       .  A
C2252      C2253   1.409       .  A
C2252      H2257   1.084       .  S
C2253      C2254   1.429       .  A
C2254      C2255   1.524       .  S
C2255      F2259   1.385       .  S
C2255      F2260   1.383       .  S
C2255      F2261   1.383       .  S
C2258      F2262   1.383       .  S
C2258      F2263   1.380       .  S
C2258      F2264   1.384       .  S
C2265      C2266   1.399       .  A
C2265      C2270   1.404       .  A
C2265      H2272   1.085       .  S
C2266      C2267   1.419       .  A
C2267      C2274   1.523       .  S
C2267      C2268   1.404       .  A
C2268      C2269   1.410       .  A
C2268      H2273   1.077       .  S
C2269      C2270   1.434       .  A
C2270      C2271   1.528       .  S
C2271      F2275   1.383       .  S
C2271      F2276   1.376       .  S
C2271      F2277   1.385       .  S
C2274      F2278   1.383       .  S
C2274      F2279   1.382       .  S
C2274      F2280   1.384       .  S
Fe2281     O2297   2.072       .  S
Fe2281     O2287   2.081       .  S
Fe2281     O2294   2.074       .  S
Fe2281     O2286   2.075       .  S
Fe2281     O2292   1.966       .  S
Fe2282     O2285   2.048       .  S
Fe2282     O2289   2.073       .  S
Fe2282     O2293   2.048       .  S
Fe2282     O2298   2.078       .  S
Fe2282     O2292   1.957       .  S
Fe2283     O2301   2.069       .  S
Fe2283     O2288   2.078       .  S
Fe2283     O2295   2.072       .  S
Fe2283     O2284   2.062       .  S
Fe2283     O2292   1.959       .  S
O2284      C2291   1.268       .  A
O2285      C2299   1.265       .  A
O2286      C2291   1.269       .  A
O2287      C2290   1.273       .  A
O2288      C2300   1.274       .  A
O2289      C2302   1.271       .  A
C2290      O2295   1.272       .  A
C2290      C2582   1.499       .  S
C2291      C2617   1.478       .  S
O2293      C2296   1.266       .  A
O2294      C2296   1.271       .  A
C2296      C2646   1.476       .  S
O2297      C2302   1.269       .  A
O2298      C2300   1.270       .  A
C2299      O2301   1.267       .  A
C2299      C2566   1.473       .  S
C2300      C2598   1.508       .  S
C2302      C2633   1.505       .  S
C2303      C2304   1.507       .  S
C2303      C2309   1.509       .  S
C2303      C2307   1.523       .  S
C2303      C2553   1.543       .  S
C2304      H2311   1.079       .  S
C2304      C2305   1.378       .  D
C2305      C2306   1.570       .  S
C2306      C2310   1.574       .  S
C2306      C2308   1.551       .  S
C2306      H2312   1.106       .  S
C2307      H2313   1.081       .  S
C2307      C2308   1.369       .  D
C2308      C2712   1.503   1_554  S
C2309      H2314   1.074       .  S
C2309      C2310   1.375       .  D
C2310      C2437   1.517       .  S
C2315      C2316   1.506       .  S
C2315      C2321   1.513       .  S
C2315      C2319   1.526       .  S
C2315      C2537   1.551       .  S
C2316      H2323   1.077       .  S
C2316      C2317   1.370       .  D
C2317      C2318   1.570       .  S
C2318      C2322   1.560       .  S
C2318      C2320   1.556       .  S
C2318      H2324   1.107       .  S
C2319      H2325   1.080       .  S
C2319      C2320   1.380       .  D
C2320      C2748   1.503       .  S
C2321      H2326   1.081       .  S
C2321      C2322   1.375       .  D
C2322      C2413   1.519       .  S
C2327      C2328   1.499       .  S
C2327      C2333   1.509       .  S
C2327      C2331   1.538       .  S
C2327      C2518   1.547       .  S
C2328      H2335   1.080       .  S
C2328      C2329   1.372       .  D
C2329      C2330   1.561       .  S
C2329      C2394   1.507       .  S
C2330      C2334   1.555       .  S
C2330      C2332   1.551       .  S
C2330      H2336   1.106       .  S
C2331      H2337   1.076       .  S
C2331      C2332   1.386       .  D
C2332      C2688   1.502       .  S
C2333      H2338   1.079       .  S
C2333      C2334   1.371       .  D
C2339      C2340   1.506       .  S
C2339      C2345   1.515       .  S
C2339      C2343   1.528       .  S
C2339      C2601   1.553       .  S
C2340      H2347   1.078       .  S
C2340      C2341   1.377       .  D
C2341      C2342   1.567       .  S
C2342      C2346   1.558       .  S
C2342      C2344   1.540       .  S
C2342      H2348   1.105       .  S
C2343      H2349   1.081       .  S
C2343      C2344   1.376       .  D
C2344      C2736   1.498       .  S
C2345      H2350   1.080       .  S
C2345      C2346   1.377       .  D
C2351      C2352   1.503       .  S
C2351      C2357   1.505       .  S
C2351      C2355   1.517       .  S
C2351      C2569   1.540       .  S
C2352      H2359   1.079       .  S
C2352      C2353   1.373       .  D
C2353      C2354   1.567       .  S
C2354      C2358   1.573       .  S
C2354      C2356   1.561       .  S
C2354      H2360   1.106       .  S
C2355      H2361   1.076       .  S
C2355      C2356   1.369       .  D
C2356      C2724   1.494   1_554  S
C2357      H2362   1.071       .  S
C2357      C2358   1.376       .  D
C2363      C2364   1.496       .  S
C2363      C2369   1.499       .  S
C2363      C2367   1.531       .  S
C2363      C2505   1.545       .  S
C2364      H2371   1.077       .  S
C2364      C2365   1.367       .  D
C2365      C2366   1.563       .  S
C2365      C2382   1.511       .  S
C2366      C2370   1.568       .  S
C2366      C2368   1.564       .  S
C2366      H2372   1.106       .  S
C2367      H2373   1.072       .  S
C2367      C2368   1.380       .  D
C2368      C2700   1.502   1_554  S
C2369      H2374   1.076       .  S
C2369      C2370   1.374       .  D
C2375      C2376   1.508       .  S
C2375      C2381   1.503       .  S
C2375      C2379   1.531       .  S
C2375      C2585   1.553       .  S
C2376      H2383   1.080       .  S
C2376      C2377   1.368       .  D
C2377      C2378   1.569       .  S
C2378      C2382   1.568       .  S
C2378      C2380   1.546       .  S
C2378      H2384   1.106       .  S
C2379      H2385   1.081       .  S
C2379      C2380   1.376       .  D
C2380      C2796   1.509   1_554  S
C2381      H2386   1.078       .  S
C2381      C2382   1.382       .  D
C2387      C2388   1.522       .  S
C2387      C2393   1.492       .  S
C2387      C2391   1.539       .  S
C2387      C2649   1.545       .  S
C2388      H2395   1.079       .  S
C2388      C2389   1.372       .  D
C2389      C2390   1.563       .  S
C2390      C2394   1.572       .  S
C2390      C2392   1.537       .  S
C2390      H2396   1.105       .  S
C2391      H2397   1.082       .  S
C2391      C2392   1.375       .  D
C2392      C2820   1.500       .  S
C2393      H2398   1.081       .  S
C2393      C2394   1.370       .  D
C2399      C2400   1.504       .  S
C2399      C2405   1.513       .  S
C2399      C2403   1.519       .  S
C2399      C2489   1.544       .  S
C2400      H2407   1.078       .  S
C2400      C2401   1.369       .  D
C2401      C2402   1.566       .  S
C2402      C2406   1.562       .  S
C2402      C2404   1.566       .  S
C2402      H2408   1.106       .  S
C2403      H2409   1.079       .  S
C2403      C2404   1.377       .  D
C2404      C2808   1.504       .  S
C2405      H2410   1.078       .  S
C2405      C2406   1.375       .  D
C2411      C2412   1.501       .  S
C2411      C2417   1.514       .  S
C2411      C2415   1.531       .  S
C2411      C2614   1.547       .  S
C2412      H2419   1.079       .  S
C2412      C2413   1.371       .  D
C2413      C2414   1.565       .  S
C2414      C2418   1.559       .  S
C2414      C2416   1.565       .  S
C2414      H2420   1.106       .  S
C2415      H2421   1.075       .  S
C2415      C2416   1.377       .  D
C2416      C2760   1.506       .  S
C2417      H2422   1.078       .  S
C2417      C2418   1.378       .  D
C2423      C2424   1.506       .  S
C2423      C2429   1.499       .  S
C2423      C2427   1.538       .  S
C2423      C2473   1.550       .  S
C2424      H2431   1.078       .  S
C2424      C2425   1.373       .  D
C2425      C2426   1.569       .  S
C2426      C2430   1.564       .  S
C2426      C2428   1.554       .  S
C2426      H2432   1.106       .  S
C2427      H2433   1.077       .  S
C2427      C2428   1.384       .  D
C2428      C2784   1.505   1_554  S
C2429      H2434   1.076       .  S
C2429      C2430   1.373       .  D
C2435      C2436   1.518       .  S
C2435      C2441   1.517       .  S
C2435      C2439   1.515       .  S
C2435      C2630   1.551       .  S
C2436      H2443   1.071       .  S
C2436      C2437   1.376       .  D
C2437      C2438   1.560       .  S
C2438      C2442   1.561       .  S
C2438      C2440   1.555       .  S
C2438      H2444   1.106       .  S
C2439      H2445   1.081       .  S
C2439      C2440   1.372       .  D
C2440      C2772   1.497   1_554  S
C2441      H2446   1.075       .  S
C2441      C2442   1.379       .  D
Fe2447     O2463   2.070       .  S
Fe2447     O2453   2.050       .  S
Fe2447     O2460   2.050       .  S
Fe2447     O2452   2.060       .  S
Fe2447     O2458   1.957       .  S
Fe2448     O2451   2.067       .  S
Fe2448     O2455   2.081       .  S
Fe2448     O2459   2.072       .  S
Fe2448     O2464   2.078       .  S
Fe2448     O2458   1.965       .  S
Fe2449     O2467   2.065       .  S
Fe2449     O2454   2.064       .  S
Fe2449     O2461   2.069       .  S
Fe2449     O2450   2.074       .  S
Fe2449     O2458   1.968       .  S
O2450      C2457   1.270       .  A
O2451      C2465   1.271       .  A
O2452      C2457   1.267       .  A
O2453      C2456   1.266       .  A
O2454      C2466   1.270       .  A
O2455      C2468   1.273       .  A
C2456      O2461   1.269       .  A
C2456      C2502   1.465       .  S
C2457      C2534   1.488       .  S
O2459      C2462   1.271       .  A
O2460      C2462   1.265       .  A
C2462      C2486   1.483       .  S
O2463      C2468   1.268       .  A
O2464      C2466   1.271       .  A
C2465      O2467   1.267       .  A
C2465      C2550   1.492       .  S
C2466      C2521   1.474       .  S
C2468      C2470   1.490       .  S
C2469      C2470   1.397       .  A
C2469      C2474   1.402       .  A
C2469      H2476   1.085       .  S
C2470      C2471   1.416       .  A
C2471      C2478   1.518       .  S
C2471      C2472   1.415       .  A
C2472      C2473   1.415       .  A
C2472      H2477   1.078       .  S
C2473      C2474   1.437       .  A
C2474      C2475   1.530       .  S
C2475      F2479   1.386       .  S
C2475      F2480   1.377       .  S
C2475      F2481   1.383       .  S
C2478      F2482   1.382       .  S
C2478      F2483   1.382       .  S
C2478      F2484   1.385       .  S
C2485      C2486   1.402       .  A
C2485      C2490   1.411       .  A
C2485      H2492   1.084       .  S
C2486      C2487   1.418       .  A
C2487      C2494   1.525       .  S
C2487      C2488   1.397       .  A
C2488      C2489   1.412       .  A
C2488      H2493   1.076       .  S
C2489      C2490   1.434       .  A
C2490      C2491   1.526       .  S
C2491      F2495   1.385       .  S
C2491      F2496   1.383       .  S
C2491      F2497   1.377       .  S
C2494      F2498   1.383       .  S
C2494      F2499   1.377       .  S
C2494      F2500   1.384       .  S
C2501      C2502   1.393       .  A
C2501      C2506   1.402       .  A
C2501      H2508   1.083       .  S
C2502      C2503   1.409       .  A
C2503      C2510   1.518       .  S
C2503      C2504   1.405       .  A
C2504      C2505   1.416       .  A
C2504      H2509   1.075       .  S
C2505      C2506   1.445       .  A
C2506      C2507   1.541       .  S
C2507      F2511   1.386       .  S
C2507      F2512   1.377       .  S
C2507      F2513   1.380       .  S
C2510      F2514   1.383       .  S
C2510      F2515   1.381       .  S
C2510      F2516   1.384       .  S
C2517      C2518   1.418       .  A
C2517      C2522   1.413       .  A
C2517      H2524   1.077       .  S
C2518      C2519   1.441       .  A
C2519      C2526   1.532       .  S
C2519      C2520   1.403       .  A
C2520      C2521   1.392       .  A
C2520      H2525   1.086       .  S
C2521      C2522   1.408       .  A
C2522      C2523   1.516       .  S
C2523      F2527   1.384       .  S
C2523      F2528   1.383       .  S
C2523      F2529   1.383       .  S
C2526      F2530   1.383       .  S
C2526      F2531   1.376       .  S
C2526      F2532   1.386       .  S
C2533      C2534   1.403       .  A
C2533      C2538   1.411       .  A
C2533      H2540   1.085       .  S
C2534      C2535   1.416       .  A
C2535      C2542   1.525       .  S
C2535      C2536   1.403       .  A
C2536      C2537   1.417       .  A
C2536      H2541   1.074       .  S
C2537      C2538   1.435       .  A
C2538      C2539   1.527       .  S
C2539      F2543   1.384       .  S
C2539      F2544   1.375       .  S
C2539      F2545   1.383       .  S
C2542      F2546   1.382       .  S
C2542      F2547   1.383       .  S
C2542      F2548   1.385       .  S
C2549      C2550   1.404       .  A
C2549      C2554   1.405       .  A
C2549      H2556   1.084       .  S
C2550      C2551   1.422       .  A
C2551      C2558   1.522       .  S
C2551      C2552   1.406       .  A
C2552      C2553   1.411       .  A
C2552      H2557   1.080       .  S
C2553      C2554   1.429       .  A
C2554      C2555   1.523       .  S
C2555      F2559   1.378       .  S
C2555      F2560   1.383       .  S
C2555      F2561   1.385       .  S
C2558      F2562   1.381       .  S
C2558      F2563   1.383       .  S
C2558      F2564   1.385       .  S
C2565      C2566   1.399       .  A
C2565      C2570   1.406       .  A
C2565      H2572   1.085       .  S
C2566      C2567   1.414       .  A
C2567      C2574   1.522       .  S
C2567      C2568   1.399       .  A
C2568      C2569   1.413       .  A
C2568      H2573   1.080       .  S
C2569      C2570   1.431       .  A
C2570      C2571   1.524       .  S
C2571      F2575   1.385       .  S
C2571      F2576   1.383       .  S
C2571      F2577   1.380       .  S
C2574      F2578   1.382       .  S
C2574      F2579   1.381       .  S
C2574      F2580   1.385       .  S
C2581      C2582   1.407       .  A
C2581      C2586   1.412       .  A
C2581      H2588   1.084       .  S
C2582      C2583   1.419       .  A
C2583      C2590   1.523       .  S
C2583      C2584   1.407       .  A
C2584      C2585   1.416       .  A
C2584      H2589   1.077       .  S
C2585      C2586   1.432       .  A
C2586      C2587   1.526       .  S
C2587      F2591   1.384       .  S
C2587      F2592   1.383       .  S
C2587      F2593   1.376       .  S
C2590      F2594   1.384       .  S
C2590      F2595   1.383       .  S
C2590      F2596   1.385       .  S
C2597      C2598   1.407       .  A
C2597      C2602   1.411       .  A
C2597      H2604   1.084       .  S
C2598      C2599   1.427       .  A
C2599      C2606   1.524       .  S
C2599      C2600   1.411       .  A
C2600      C2601   1.412       .  A
C2600      H2605   1.078       .  S
C2601      C2602   1.431       .  A
C2602      C2603   1.524       .  S
C2603      F2607   1.385       .  S
C2603      F2608   1.377       .  S
C2603      F2609   1.383       .  S
C2606      F2610   1.384       .  S
C2606      F2611   1.383       .  S
C2606      F2612   1.385       .  S
C2613      C2614   1.420       .  A
C2613      C2618   1.414       .  A
C2613      H2620   1.076       .  S
C2614      C2615   1.438       .  A
C2615      C2622   1.531       .  S
C2615      C2616   1.401       .  A
C2616      C2617   1.395       .  A
C2616      H2621   1.086       .  S
C2617      C2618   1.409       .  A
C2618      C2619   1.518       .  S
C2619      F2623   1.385       .  S
C2619      F2624   1.383       .  S
C2619      F2625   1.383       .  S
C2622      F2626   1.375       .  S
C2622      F2627   1.383       .  S
C2622      F2628   1.385       .  S
C2629      C2630   1.412       .  A
C2629      C2634   1.410       .  A
C2629      H2636   1.080       .  S
C2630      C2631   1.424       .  A
C2631      C2638   1.522       .  S
C2631      C2632   1.407       .  A
C2632      C2633   1.411       .  A
C2632      H2637   1.084       .  S
C2633      C2634   1.425       .  A
C2634      C2635   1.523       .  S
C2635      F2639   1.385       .  S
C2635      F2640   1.383       .  S
C2635      F2641   1.383       .  S
C2638      F2642   1.383       .  S
C2638      F2643   1.380       .  S
C2638      F2644   1.385       .  S
C2645      C2646   1.394       .  A
C2645      C2650   1.406       .  A
C2645      H2652   1.086       .  S
C2646      C2647   1.411       .  A
C2647      C2654   1.522       .  S
C2647      C2648   1.404       .  A
C2648      C2649   1.415       .  A
C2648      H2653   1.072       .  S
C2649      C2650   1.441       .  A
C2650      C2651   1.529       .  S
C2651      F2655   1.384       .  S
C2651      F2656   1.374       .  S
C2651      F2657   1.384       .  S
C2654      F2658   1.384       .  S
C2654      F2659   1.382       .  S
C2654      F2660   1.382       .  S
Fe2661     O2677   2.072       .  S
Fe2661     O2667   2.091       .  S
Fe2661     O2674   2.085       .  S
Fe2661     O2666   2.077       .  S
Fe2661     O2672   1.960       .  S
Fe2662     O2665   2.049       .  S
Fe2662     O2669   2.076       .  S
Fe2662     O2673   2.047       .  S
Fe2662     O2678   2.080       .  S
Fe2662     O2672   1.954       .  S
Fe2663     O2681   2.070       .  S
Fe2663     O2668   2.073       .  S
Fe2663     O2675   2.068       .  S
Fe2663     O2664   2.060       .  S
Fe2663     O2672   1.955       .  S
O2664      C2671   1.268       .  A
O2665      C2679   1.266       .  A
O2666      C2671   1.270       .  A
O2667      C2670   1.276       .  A
O2668      C2680   1.273       .  A
O2669      C2682   1.272       .  A
C2670      O2675   1.271       .  A
C2670      C2962   1.505       .  S
C2671      C2997   1.479       .  S
O2673      C2676   1.265       .  A
O2674      C2676   1.274       .  A
C2676      C3026   1.484       .  S
O2677      C2682   1.269       .  A
O2678      C2680   1.271       .  A
C2679      O2681   1.267       .  A
C2679      C2946   1.477       .  S
C2680      C2978   1.502       .  S
C2682      C3013   1.506       .  S
C2683      C2684   1.510       .  S
C2683      C2689   1.511       .  S
C2683      C2687   1.519       .  S
C2683      C2933   1.543       .  S
C2684      H2691   1.080       .  S
C2684      C2685   1.378       .  D
C2685      C2686   1.568       .  S
C2686      C2690   1.575       .  S
C2686      C2688   1.556       .  S
C2686      H2692   1.106       .  S
C2687      H2693   1.081       .  S
C2687      C2688   1.367       .  D
C2689      H2694   1.072       .  S
C2689      C2690   1.377       .  D
C2690      C2817   1.521       .  S
C2695      C2696   1.505       .  S
C2695      C2701   1.510       .  S
C2695      C2699   1.528       .  S
C2695      C2917   1.554       .  S
C2696      H2703   1.075       .  S
C2696      C2697   1.372       .  D
C2697      C2698   1.572       .  S
C2698      C2702   1.562       .  S
C2698      C2700   1.553       .  S
C2698      H2704   1.106       .  S
C2699      H2705   1.079       .  S
C2699      C2700   1.381       .  D
C2701      H2706   1.080       .  S
C2701      C2702   1.377       .  D
C2702      C2793   1.525       .  S
C2707      C2708   1.500       .  S
C2707      C2713   1.502       .  S
C2707      C2711   1.537       .  S
C2707      C2898   1.545       .  S
C2708      H2715   1.078       .  S
C2708      C2709   1.373       .  D
C2709      C2710   1.562       .  S
C2709      C2774   1.512       .  S
C2710      C2714   1.560       .  S
C2710      C2712   1.555       .  S
C2710      H2716   1.106       .  S
C2711      H2717   1.075       .  S
C2711      C2712   1.385       .  D
C2713      H2718   1.078       .  S
C2713      C2714   1.369       .  D
C2719      C2720   1.507       .  S
C2719      C2725   1.511       .  S
C2719      C2723   1.529       .  S
C2719      C2981   1.549       .  S
C2720      H2727   1.080       .  S
C2720      C2721   1.376       .  D
C2721      C2722   1.565       .  S
C2722      C2726   1.561       .  S
C2722      C2724   1.534       .  S
C2722      H2728   1.106       .  S
C2723      H2729   1.081       .  S
C2723      C2724   1.376       .  D
C2725      H2730   1.081       .  S
C2725      C2726   1.378       .  D
C2731      C2732   1.502       .  S
C2731      C2737   1.504       .  S
C2731      C2735   1.522       .  S
C2731      C2949   1.543       .  S
C2732      H2739   1.080       .  S
C2732      C2733   1.374       .  D
C2733      C2734   1.563       .  S
C2734      C2738   1.574       .  S
C2734      C2736   1.561       .  S
C2734      H2740   1.106       .  S
C2735      H2741   1.078       .  S
C2735      C2736   1.373       .  D
C2737      H2742   1.069       .  S
C2737      C2738   1.373       .  D
C2743      C2744   1.498       .  S
C2743      C2749   1.504       .  S
C2743      C2747   1.532       .  S
C2743      C2885   1.543       .  S
C2744      H2751   1.077       .  S
C2744      C2745   1.368       .  D
C2745      C2746   1.563       .  S
C2745      C2762   1.509       .  S
C2746      C2750   1.565       .  S
C2746      C2748   1.560       .  S
C2746      H2752   1.106       .  S
C2747      H2753   1.071       .  S
C2747      C2748   1.379       .  D
C2749      H2754   1.078       .  S
C2749      C2750   1.376       .  D
C2755      C2756   1.507       .  S
C2755      C2761   1.504       .  S
C2755      C2759   1.531       .  S
C2755      C2965   1.553       .  S
C2756      H2763   1.079       .  S
C2756      C2757   1.372       .  D
C2757      C2758   1.564       .  S
C2758      C2762   1.566       .  S
C2758      C2760   1.542       .  S
C2758      H2764   1.106       .  S
C2759      H2765   1.081       .  S
C2759      C2760   1.377       .  D
C2761      H2766   1.079       .  S
C2761      C2762   1.380       .  D
C2767      C2768   1.522       .  S
C2767      C2773   1.494       .  S
C2767      C2771   1.528       .  S
C2767      C3029   1.541       .  S
C2768      H2775   1.082       .  S
C2768      C2769   1.377       .  D
C2769      C2770   1.568       .  S
C2770      C2774   1.574       .  S
C2770      C2772   1.539       .  S
C2770      H2776   1.106       .  S
C2771      H2777   1.082       .  S
C2771      C2772   1.370       .  D
C2773      H2778   1.078       .  S
C2773      C2774   1.372       .  D
C2779      C2780   1.503       .  S
C2779      C2785   1.514       .  S
C2779      C2783   1.521       .  S
C2779      C2869   1.546       .  S
C2780      H2787   1.078       .  S
C2780      C2781   1.369       .  D
C2781      C2782   1.565       .  S
C2782      C2786   1.561       .  S
C2782      C2784   1.567       .  S
C2782      H2788   1.106       .  S
C2783      H2789   1.080       .  S
C2783      C2784   1.378       .  D
C2785      H2790   1.079       .  S
C2785      C2786   1.375       .  D
C2791      C2792   1.498       .  S
C2791      C2797   1.512       .  S
C2791      C2795   1.535       .  S
C2791      C2994   1.547       .  S
C2792      H2799   1.078       .  S
C2792      C2793   1.370       .  D
C2793      C2794   1.572       .  S
C2794      C2798   1.563       .  S
C2794      C2796   1.562       .  S
C2794      H2800   1.106       .  S
C2795      H2801   1.075       .  S
C2795      C2796   1.379       .  D
C2797      H2802   1.077       .  S
C2797      C2798   1.376       .  D
C2803      C2804   1.506       .  S
C2803      C2809   1.495       .  S
C2803      C2807   1.537       .  S
C2803      C2853   1.546       .  S
C2804      H2811   1.078       .  S
C2804      C2805   1.373       .  D
C2805      C2806   1.568       .  S
C2806      C2810   1.565       .  S
C2806      C2808   1.553       .  S
C2806      H2812   1.106       .  S
C2807      H2813   1.076       .  S
C2807      C2808   1.383       .  D
C2809      H2814   1.078       .  S
C2809      C2810   1.371       .  D
C2815      C2816   1.517       .  S
C2815      C2821   1.515       .  S
C2815      C2819   1.521       .  S
C2815      C3010   1.553       .  S
C2816      H2823   1.072       .  S
C2816      C2817   1.375       .  D
C2817      C2818   1.563       .  S
C2818      C2822   1.567       .  S
C2818      C2820   1.557       .  S
C2818      H2824   1.105       .  S
C2819      H2825   1.082       .  S
C2819      C2820   1.372       .  D
C2821      H2826   1.073       .  S
C2821      C2822   1.379       .  D
Fe2827     O2843   2.066       .  S
Fe2827     O2833   2.056       .  S
Fe2827     O2840   2.059       .  S
Fe2827     O2832   2.064       .  S
Fe2827     O2838   1.962       .  S
Fe2828     O2831   2.064       .  S
Fe2828     O2835   2.077       .  S
Fe2828     O2839   2.072       .  S
Fe2828     O2844   2.073       .  S
Fe2828     O2838   1.971       .  S
Fe2829     O2847   2.071       .  S
Fe2829     O2834   2.061       .  S
Fe2829     O2841   2.066       .  S
Fe2829     O2830   2.071       .  S
Fe2829     O2838   1.971       .  S
O2830      C2837   1.270       .  A
O2831      C2845   1.271       .  A
O2832      C2837   1.267       .  A
O2833      C2836   1.267       .  A
O2834      C2846   1.267       .  A
O2835      C2848   1.270       .  A
C2836      O2841   1.268       .  A
C2836      C2882   1.466       .  S
C2837      C2914   1.485       .  S
O2839      C2842   1.272       .  A
O2840      C2842   1.268       .  A
C2842      C2866   1.485       .  S
O2843      C2848   1.266       .  A
O2844      C2846   1.269       .  A
C2845      O2847   1.269       .  A
C2845      C2930   1.491       .  S
C2846      C2901   1.471       .  S
C2848      C2850   1.487       .  S
C2849      C2850   1.396       .  A
C2849      C2854   1.402       .  A
C2849      H2856   1.085       .  S
C2850      C2851   1.415       .  A
C2851      C2858   1.515       .  S
C2851      C2852   1.411       .  A
C2852      C2853   1.413       .  A
C2852      H2857   1.077       .  S
C2853      C2854   1.437       .  A
C2854      C2855   1.530       .  S
C2855      F2859   1.385       .  S
C2855      F2860   1.377       .  S
C2855      F2861   1.383       .  S
C2858      F2862   1.382       .  S
C2858      F2863   1.382       .  S
C2858      F2864   1.385       .  S
C2865      C2866   1.403       .  A
C2865      C2870   1.412       .  A
C2865      H2872   1.084       .  S
C2866      C2867   1.417       .  A
C2867      C2874   1.525       .  S
C2867      C2868   1.398       .  A
C2868      C2869   1.413       .  A
C2868      H2873   1.076       .  S
C2869      C2870   1.434       .  A
C2870      C2871   1.526       .  S
C2871      F2875   1.385       .  S
C2871      F2876   1.383       .  S
C2871      F2877   1.377       .  S
C2874      F2878   1.383       .  S
C2874      F2879   1.378       .  S
C2874      F2880   1.385       .  S
C2881      C2882   1.390       .  A
C2881      C2886   1.399       .  A
C2881      H2888   1.085       .  S
C2882      C2883   1.409       .  A
C2883      C2890   1.516       .  S
C2883      C2884   1.407       .  A
C2884      C2885   1.417       .  A
C2884      H2889   1.075       .  S
C2885      C2886   1.442       .  A
C2886      C2887   1.533       .  S
C2887      F2891   1.384       .  S
C2887      F2892   1.374       .  S
C2887      F2893   1.384       .  S
C2890      F2894   1.383       .  S
C2890      F2895   1.381       .  S
C2890      F2896   1.383       .  S
C2897      C2898   1.418       .  A
C2897      C2902   1.412       .  A
C2897      H2904   1.075       .  S
C2898      C2899   1.444       .  A
C2899      C2906   1.535       .  S
C2899      C2900   1.401       .  A
C2900      C2901   1.390       .  A
C2900      H2905   1.086       .  S
C2901      C2902   1.406       .  A
C2902      C2903   1.516       .  S
C2903      F2907   1.384       .  S
C2903      F2908   1.383       .  S
C2903      F2909   1.383       .  S
C2906      F2910   1.383       .  S
C2906      F2911   1.375       .  S
C2906      F2912   1.386       .  S
C2913      C2914   1.402       .  A
C2913      C2918   1.411       .  A
C2913      H2920   1.085       .  S
C2914      C2915   1.415       .  A
C2915      C2922   1.524       .  S
C2915      C2916   1.404       .  A
C2916      C2917   1.417       .  A
C2916      H2921   1.077       .  S
C2917      C2918   1.434       .  A
C2918      C2919   1.524       .  S
C2919      F2923   1.385       .  S
C2919      F2924   1.377       .  S
C2919      F2925   1.383       .  S
C2922      F2926   1.380       .  S
C2922      F2927   1.382       .  S
C2922      F2928   1.385       .  S
C2929      C2930   1.403       .  A
C2929      C2934   1.404       .  A
C2929      H2936   1.084       .  S
C2930      C2931   1.421       .  A
C2931      C2938   1.522       .  S
C2931      C2932   1.407       .  A
C2932      C2933   1.412       .  A
C2932      H2937   1.080       .  S
C2933      C2934   1.429       .  A
C2934      C2935   1.523       .  S
C2935      F2939   1.378       .  S
C2935      F2940   1.383       .  S
C2935      F2941   1.385       .  S
C2938      F2942   1.382       .  S
C2938      F2943   1.382       .  S
C2938      F2944   1.385       .  S
C2945      C2946   1.401       .  A
C2945      C2950   1.407       .  A
C2945      H2952   1.085       .  S
C2946      C2947   1.416       .  A
C2947      C2954   1.523       .  S
C2947      C2948   1.400       .  A
C2948      C2949   1.413       .  A
C2948      H2953   1.079       .  S
C2949      C2950   1.430       .  A
C2950      C2951   1.523       .  S
C2951      F2955   1.385       .  S
C2951      F2956   1.383       .  S
C2951      F2957   1.379       .  S
C2954      F2958   1.382       .  S
C2954      F2959   1.381       .  S
C2954      F2960   1.385       .  S
C2961      C2962   1.408       .  A
C2961      C2966   1.411       .  A
C2961      H2968   1.084       .  S
C2962      C2963   1.423       .  A
C2963      C2970   1.524       .  S
C2963      C2964   1.409       .  A
C2964      C2965   1.413       .  A
C2964      H2969   1.078       .  S
C2965      C2966   1.430       .  A
C2966      C2967   1.524       .  S
C2967      F2971   1.385       .  S
C2967      F2972   1.383       .  S
C2967      F2973   1.378       .  S
C2970      F2974   1.384       .  S
C2970      F2975   1.383       .  S
C2970      F2976   1.385       .  S
C2977      C2978   1.406       .  A
C2977      C2982   1.410       .  A
C2977      H2984   1.084       .  S
C2978      C2979   1.424       .  A
C2979      C2986   1.522       .  S
C2979      C2980   1.409       .  A
C2980      C2981   1.411       .  A
C2980      H2985   1.079       .  S
C2981      C2982   1.431       .  A
C2982      C2983   1.524       .  S
C2983      F2987   1.385       .  S
C2983      F2988   1.378       .  S
C2983      F2989   1.383       .  S
C2986      F2990   1.383       .  S
C2986      F2991   1.383       .  S
C2986      F2992   1.385       .  S
C2993      C2994   1.419       .  A
C2993      C2998   1.413       .  A
C2993      H3000   1.076       .  S
C2994      C2995   1.439       .  A
C2995      C3002   1.531       .  S
C2995      C2996   1.401       .  A
C2996      C2997   1.395       .  A
C2996      H3001   1.086       .  S
C2997      C2998   1.409       .  A
C2998      C2999   1.517       .  S
C2999      F3003   1.385       .  S
C2999      F3004   1.383       .  S
C2999      F3005   1.383       .  S
C3002      F3006   1.376       .  S
C3002      F3007   1.383       .  S
C3002      F3008   1.386       .  S
C3009      C3010   1.412       .  A
C3009      C3014   1.411       .  A
C3009      H3016   1.080       .  S
C3010      C3011   1.425       .  A
C3011      C3018   1.522       .  S
C3011      C3012   1.408       .  A
C3012      C3013   1.411       .  A
C3012      H3017   1.084       .  S
C3013      C3014   1.426       .  A
C3014      C3015   1.523       .  S
C3015      F3019   1.385       .  S
C3015      F3020   1.383       .  S
C3015      F3021   1.384       .  S
C3018      F3022   1.383       .  S
C3018      F3023   1.380       .  S
C3018      F3024   1.385       .  S
C3025      C3026   1.397       .  A
C3025      C3030   1.406       .  A
C3025      H3032   1.085       .  S
C3026      C3027   1.419       .  A
C3027      C3034   1.522       .  S
C3027      C3028   1.406       .  A
C3028      C3029   1.410       .  A
C3028      H3033   1.076       .  S
C3029      C3030   1.438       .  A
C3030      C3031   1.530       .  S
C3031      F3035   1.381       .  S
C3031      F3036   1.377       .  S
C3031      F3037   1.386       .  S
C3034      F3038   1.383       .  S
C3034      F3039   1.382       .  S
C3034      F3040   1.383       .  S
