geometry optimzed in LAMMPS
_audit_creation_date              2020-11-30 
_audit_creation_method            'lammps2cif' 
_symmetry_space_group_name_H-M    'P1' 
_symmetry_Int_Tables_number       1 
_symmetry_cell_setting            triclinic 
loop_ 
_symmetry_equiv_pos_as_xyz 
  x,y,z 
_cell_length_a                    33.81634492 
_cell_length_b                    33.82001584939267 
_cell_length_c                    54.56824761412623 
_cell_angle_alpha                 89.97293361700795 
_cell_angle_beta                  89.9969924472166 
_cell_angle_gamma                 90.01013770587703 
loop_ 
_atom_site_label 
_atom_site_type_symbol 
_atom_site_fract_x 
_atom_site_fract_y 
_atom_site_fract_z 
_atom_site_charge 
In1        In  0.37617339  0.80170670  0.82302171     1.36900
C2          C  0.45319683  0.79003829  0.82432920     0.80400
O3          O  0.38206957  0.78164324  0.78411158    -0.58000
O4          O  0.35643908  0.83811662  0.79063373    -0.48900
C5          C  0.31751492  0.75133035  0.83101354     0.73100
O6          O  0.35326003  0.74089237  0.83102119    -0.43800
C7          C  0.37464138  0.85268264  0.85992406     0.77800
O8          O  0.42907283  0.76374040  0.83109193    -0.55600
O9          O  0.36671705  0.86276788  0.83821560    -0.45700
O10         O  0.43801820  0.82182384  0.81685789    -0.52100
C11         C  0.36721006  0.81254232  0.77517656     0.88000
O12         O  0.31159744  0.78770792  0.82768430    -0.54000
O13         O  0.38139689  0.81640828  0.86297820    -0.57300
In14       In  0.64959367  0.80171317  0.82278567     1.36900
C15         C  0.57257104  0.78999552  0.82410539     0.80400
O16         O  0.64405937  0.81626904  0.86274424    -0.58000
O17         O  0.65939482  0.86262002  0.83812616    -0.48900
C18         C  0.70824669  0.75132634  0.83079143     0.76300
O19         O  0.67248513  0.74094484  0.83095423    -0.43800
C20         C  0.65845207  0.81290289  0.77497035     0.77800
O21         O  0.59672225  0.76354027  0.83056873    -0.55600
O22         O  0.66902669  0.83847865  0.79047723    -0.45700
O23         O  0.58772208  0.82193470  0.81685742    -0.52100
C24         C  0.65115071  0.85249967  0.85978208     0.88000
O25         O  0.71419579  0.78765628  0.82728226    -0.54000
O26         O  0.64384429  0.78183068  0.78383977    -0.57300
In27       In  0.68215638  0.10817408  0.65348108     1.36900
C28         C  0.69382579  0.03111340  0.65188319     0.80400
O29         O  0.70211699  0.10203617  0.69240584    -0.58000
O30         O  0.64590582  0.12821792  0.68586619    -0.48900
C31         C  0.73267431  0.16670400  0.64532741     0.73100
O32         O  0.74308729  0.13096178  0.64565158    -0.43800
C33         C  0.63096897  0.10989267  0.61671354     0.77800
O34         O  0.72010757  0.05531998  0.64521553    -0.55600
O35         O  0.62094853  0.11753030  0.63846922    -0.45700
O36         O  0.66204692  0.04622270  0.65941325    -0.52100
C37         C  0.67136991  0.11719714  0.70133193     0.88000
O38         O  0.69625780  0.17268970  0.64844637    -0.54000
O39         O  0.66725744  0.10333401  0.61356252    -0.57300
In40       In  0.68231816  0.83461554  0.65331207     1.36900
C41         C  0.69398716  0.91169911  0.65187380     0.80400
O42         O  0.66755305  0.83966101  0.61337821    -0.58000
O43         O  0.62126299  0.82497687  0.63820658    -0.48900
C44         C  0.73252463  0.77584166  0.64517884     0.73100
O45         O  0.74296086  0.81158667  0.64493455    -0.43800
C46         C  0.67136901  0.82579621  0.70114571     0.77800
O47         O  0.72052055  0.88754197  0.64555443    -0.55600
O48         O  0.64563352  0.81539919  0.68569233    -0.45700
O49         O  0.66199969  0.89652738  0.65901011    -0.52100
C50         C  0.63129804  0.83283857  0.61648322     0.88000
O51         O  0.69621442  0.76996578  0.64883085    -0.54000
O52         O  0.70250460  0.84016636  0.69221237    -0.57300
In53       In  0.34352709  0.83450520  0.65349034     1.36900
C54         C  0.33195720  0.91157695  0.65194220     0.80400
O55         O  0.32349636  0.84042382  0.69241121    -0.58000
O56         O  0.37990267  0.81465863  0.68586083    -0.48900
C57         C  0.29312006  0.77590330  0.64545014     0.73100
O58         O  0.28275327  0.81166788  0.64531316    -0.43800
C59         C  0.39454416  0.83261533  0.61664800     0.77800
O60         O  0.30549086  0.88742857  0.64549556    -0.55600
O61         O  0.40469995  0.82537322  0.63843197    -0.45700
O62         O  0.36385378  0.89640603  0.65922384    -0.52100
C63         C  0.35436274  0.82547341  0.70133023     0.88000
O64         O  0.32944692  0.76992956  0.64896861    -0.54000
O65         O  0.35819465  0.83884536  0.61350537    -0.57300
In66       In  0.34365654  0.10802513  0.65350638     1.36900
C67         C  0.33197238  0.03097049  0.65209160     0.80400
O68         O  0.35824542  0.10279106  0.61355435    -0.58000
O69         O  0.40467209  0.11754579  0.63825238    -0.48900
C70         C  0.29329940  0.16660866  0.64523085     0.73100
O71         O  0.28287532  0.13086202  0.64535344    -0.43800
C72         C  0.35466403  0.11711532  0.70134140     0.77800
O73         O  0.30545997  0.05514338  0.64575785    -0.55600
O74         O  0.38033185  0.12754323  0.68584305    -0.45700
O75         O  0.36394945  0.04611077  0.65926718    -0.52100
C76         C  0.39452348  0.10958956  0.61656392     0.88000
O77         O  0.32966541  0.17257673  0.64860224    -0.54000
O78         O  0.32359123  0.10256240  0.69245329    -0.57300
In79       In  0.37619255  0.14087985  0.82305513     1.36900
C80         C  0.45325695  0.15259891  0.82452010     0.80400
O81         O  0.38156646  0.12590914  0.86296172    -0.58000
O82         O  0.36650881  0.07976935  0.83814942    -0.48900
C83         C  0.31751381  0.19121224  0.83120024     0.73100
O84         O  0.35326260  0.20164011  0.83119620    -0.43800
C85         C  0.36738455  0.13004105  0.77519455     0.77800
O86         O  0.42907717  0.17892197  0.83113801    -0.55600
O87         O  0.35671011  0.10439858  0.79064796    -0.45700
O88         O  0.43811317  0.12079634  0.81706127    -0.52100
C89         C  0.37460731  0.08968900  0.85985558     0.88000
O90         O  0.31158837  0.15485883  0.82778731    -0.54000
O91         O  0.38202189  0.16102869  0.78414067    -0.57300
In92       In  0.64975116  0.14083663  0.82304126     1.36900
C93         C  0.57267995  0.15251882  0.82461645     0.80400
O94         O  0.64348703  0.16084298  0.78412190    -0.58000
O95         O  0.66986782  0.10471489  0.79063917    -0.48900
C96         C  0.70828938  0.19134004  0.83112019     0.73100
O97         O  0.67252263  0.20169711  0.83107191    -0.43800
C98         C  0.65160335  0.08945098  0.85974380     0.77800
O99         O  0.59687237  0.17874865  0.83136644    -0.55600
O100        O  0.65900599  0.07953282  0.83794312    -0.45700
O101        O  0.58780995  0.12079583  0.81702617    -0.52100
C102        C  0.65870721  0.13013703  0.77518264     0.88000
O103        O  0.71429481  0.15499013  0.82776481    -0.54000
O104        O  0.64518111  0.12574015  0.86297292    -0.57300
C105        C  0.39612793  0.97125235  0.95115273     0.89300
C106        C  0.38175449  0.00728538  0.93649406    -0.50900
C107        C  0.39417594  0.00696383  0.91266426     0.12300
C108        C  0.41985031  0.97116816  0.90577145     0.23200
C109        C  0.38187014  0.93507912  0.93659054    -0.51600
C110        C  0.39428732  0.93531442  0.91275542     0.12400
C111        C  0.44119989  0.97132800  0.94827281    -0.51100
C112        C  0.45363318  0.97128809  0.92457758     0.12900
H113        H  0.36349928  0.03064856  0.94415782     0.17500
H114        H  0.42999776  0.97113899  0.88639224     0.03200
H115        H  0.36366239  0.91171169  0.94431307     0.17800
H116        H  0.46158595  0.97141316  0.96367213     0.17600
C117        C  0.39615417  0.97151780  0.02533608     0.89300
C118        C  0.38178045  0.93547876  0.03999402    -0.50900
C119        C  0.39422937  0.93578731  0.06381706     0.12300
C120        C  0.41993073  0.97157343  0.07070507     0.23200
C121        C  0.38192864  0.00768278  0.03991367    -0.51600
C122        C  0.39437427  0.00743057  0.06374226     0.12400
C123        C  0.44122834  0.97143671  0.02819275    -0.51100
C124        C  0.45369025  0.97146283  0.05188068     0.12900
H125        H  0.36350393  0.91212227  0.03233518     0.17500
H126        H  0.43010079  0.97158927  0.09007868     0.03200
H127        H  0.36371787  0.03105282  0.03220756     0.17800
H128        H  0.46159623  0.97135182  0.01278263     0.17600
C129        C  0.63010607  0.97101039  0.95107443     0.89300
C130        C  0.64420154  0.93479299  0.93649791    -0.50900
C131        C  0.63175167  0.93507817  0.91267117     0.12300
C132        C  0.60631914  0.97101910  0.90570417     0.23200
C133        C  0.64460177  0.00700009  0.93640470    -0.51600
C134        C  0.63214627  0.00672345  0.91257786     0.12400
C135        C  0.58503220  0.97124713  0.94821829    -0.51100
C136        C  0.57256497  0.97124855  0.92453152     0.12900
H137        H  0.66232928  0.91135922  0.94420574     0.17500
H138        H  0.59614176  0.97102165  0.88633229     0.03200
H139        H  0.66295693  0.03029908  0.94405884     0.17800
H140        H  0.56466610  0.97137289  0.96362984     0.17600
C141        C  0.63013390  0.97119165  0.02527900     0.89300
C142        C  0.64435261  0.00745154  0.03977432    -0.50900
C143        C  0.63192346  0.00733187  0.06360633     0.12300
C144        C  0.60639512  0.97149254  0.07065989     0.23200
C145        C  0.64453478  0.93524185  0.04001607    -0.51600
C146        C  0.63210695  0.93568048  0.06384893     0.12400
C147        C  0.58506181  0.97109131  0.02815616    -0.51100
C148        C  0.57262073  0.97125281  0.05184924     0.12900
H149        H  0.66252890  0.03080243  0.03200714     0.17500
H150        H  0.59623691  0.97162308  0.09003677     0.03200
H151        H  0.66281581  0.91185666  0.03240247     0.17800
H152        H  0.56467876  0.97093726  0.01275456     0.17600
C153        C  0.51277367  0.85416482  0.52529286     0.89300
C154        C  0.54888847  0.83986560  0.53988766    -0.50900
C155        C  0.54862227  0.85229456  0.56370737     0.12300
C156        C  0.51280982  0.87790183  0.57065486     0.23200
C157        C  0.47668616  0.83983410  0.53991523    -0.51600
C158        C  0.47699428  0.85225771  0.56373960     0.12400
C159        C  0.51276761  0.89923263  0.52814737    -0.51100
C160        C  0.51279105  0.91167530  0.55183443     0.12900
H161        H  0.57224953  0.82163637  0.53219636     0.17500
H162        H  0.51283190  0.88804713  0.59003086     0.03200
H163        H  0.45333151  0.82156539  0.53224429     0.17800
H164        H  0.51277026  0.91961000  0.51273713     0.17600
C165        C  0.51297219  0.85433767  0.45116566     0.89300
C166        C  0.47692567  0.84001860  0.43651701    -0.50900
C167        C  0.47726939  0.85249641  0.41270022     0.12300
C168        C  0.51307321  0.87817382  0.40581017     0.23200
C169        C  0.54912722  0.84009247  0.43658521    -0.51600
C170        C  0.54888749  0.85256649  0.41276300     0.12400
C171        C  0.51293996  0.89941750  0.44832399    -0.51100
C172        C  0.51299364  0.91190739  0.42463568     0.12900
H173        H  0.45356861  0.82172130  0.44416634     0.17500
H174        H  0.51310889  0.88835702  0.38643599     0.03200
H175        H  0.57246282  0.82181552  0.44427756     0.17800
H176        H  0.51287583  0.91975937  0.46373730     0.17600
C177        C  0.51295168  0.08816076  0.52527566     0.89300
C178        C  0.47676179  0.10236414  0.53983921    -0.50900
C179        C  0.47698212  0.08989698  0.56366210     0.12300
C180        C  0.51282137  0.06433962  0.57063764     0.23200
C181        C  0.54896663  0.10253088  0.53994514    -0.51600
C182        C  0.54860599  0.09006884  0.56377009     0.12400
C183        C  0.51303606  0.04308555  0.52812436    -0.51100
C184        C  0.51296294  0.03060085  0.55181244     0.12900
H185        H  0.45341187  0.12059777  0.53213289     0.17500
H186        H  0.51276307  0.05415963  0.59001223     0.03200
H187        H  0.57230488  0.12087225  0.53230561     0.17800
H188        H  0.51311486  0.02273750  0.51271172     0.17600
C189        C  0.51297203  0.08833160  0.45112396     0.89300
C190        C  0.54909594  0.10262318  0.43652106    -0.50900
C191        C  0.54881558  0.09020700  0.41269597     0.12300
C192        C  0.51297621  0.06461374  0.40575475     0.23200
C193        C  0.47688911  0.10268120  0.43650646    -0.51600
C194        C  0.47717995  0.09027186  0.41267745     0.12400
C195        C  0.51293164  0.04326837  0.44826123    -0.51100
C196        C  0.51293377  0.03083304  0.42457370     0.12900
H197        H  0.57247042  0.12084258  0.44421090     0.17500
H198        H  0.51298244  0.05447317  0.38637752     0.03200
H199        H  0.45355346  0.12095878  0.44418391     0.17800
H200        H  0.51291828  0.02288480  0.46366914     0.17600
In201      In  0.64963349  0.14084126  0.15341191     1.36900
C202        C  0.57262498  0.15262548  0.15210783     0.80400
O203        O  0.64369848  0.12623769  0.11347605    -0.58000
O204        O  0.65997008  0.08007054  0.13798829    -0.48900
C205        C  0.70835676  0.19116733  0.14541385     0.73100
O206        O  0.67260871  0.20157557  0.14524160    -0.43800
C207        C  0.65837317  0.12968641  0.20125637     0.77800
O208        O  0.59680746  0.17902326  0.14558915    -0.55600
O209        O  0.66843727  0.10386689  0.18577557    -0.45700
O210        O  0.58773556  0.12069345  0.15939279    -0.52100
C211        C  0.65129243  0.09010034  0.11638164     0.88000
O212        O  0.71426219  0.15483096  0.14891863    -0.54000
O213        O  0.64431188  0.16097677  0.19234708    -0.57300
In214      In  0.37622778  0.14113390  0.15340673     1.36900
C215        C  0.45325811  0.15278553  0.15202686     0.80400
O216        O  0.38231520  0.16108532  0.19232417    -0.58000
O217        O  0.35626670  0.10480233  0.18577051    -0.48900
C218        C  0.31757150  0.19150672  0.14539517     0.73100
O219        O  0.35332920  0.20191728  0.14529166    -0.43800
C220        C  0.37471090  0.09007052  0.11656058     0.77800
O221        O  0.42913489  0.17916261  0.14539591    -0.55600
O222        O  0.36703485  0.07998377  0.13830258    -0.45700
O223        O  0.43807510  0.12095536  0.15942655    -0.52100
C224        C  0.36723077  0.13027464  0.20123999     0.88000
O225        O  0.31163723  0.15515555  0.14883514    -0.54000
O226        O  0.38118891  0.12638510  0.11344713    -0.57300
In227      In  0.68235130  0.10783980  0.32294052     1.36900
C228        C  0.69410780  0.03078926  0.32445038     0.80400
O229        O  0.66770637  0.10298074  0.36291829    -0.58000
O230        O  0.62131889  0.11741870  0.33812180    -0.48900
C231        C  0.73265566  0.16654140  0.33099282     0.73100
O232        O  0.74302928  0.13078478  0.33126395    -0.43800
C233        C  0.67132083  0.11670162  0.27509627     0.77800
O234        O  0.72061238  0.05500270  0.33073514    -0.55600
O235        O  0.64560092  0.12703430  0.29057598    -0.45700
O236        O  0.66209927  0.04588512  0.31729862    -0.52100
C237        C  0.63142599  0.10968882  0.35984920     0.88000
O238        O  0.69635427  0.17247275  0.32734624    -0.54000
O239        O  0.70247006  0.10233507  0.28400667    -0.57300
In240      In  0.68249783  0.83434611  0.32309487     1.36900
C241        C  0.69412244  0.91140180  0.32460106     0.80400
O242        O  0.70241219  0.84054309  0.28416458    -0.58000
O243        O  0.64627977  0.81418136  0.29072285    -0.48900
C244        C  0.73298839  0.77582538  0.33129380     0.73100
O245        O  0.74336254  0.81158742  0.33113734    -0.43800
C246        C  0.63137265  0.83275363  0.35989489     0.77800
O247        O  0.72056059  0.88723891  0.33107660    -0.55600
O248        O  0.62128981  0.82518696  0.33814136    -0.45700
O249        O  0.66222112  0.89625019  0.31730281    -0.52100
C250        C  0.67169929  0.82529034  0.27524861     0.88000
O251        O  0.69661291  0.76981456  0.32799806    -0.54000
O252        O  0.66769455  0.83915830  0.36303118    -0.57300
In253      In  0.37644444  0.80187305  0.15342381     1.36900
C254        C  0.45349411  0.79014000  0.15198071     0.80400
O255        O  0.38183893  0.81684744  0.11351976    -0.58000
O256        O  0.36663177  0.86294560  0.13832382    -0.48900
C257        C  0.31780680  0.75147134  0.14532996     0.73100
O258        O  0.35355332  0.74105518  0.14538567    -0.43800
C259        C  0.36772482  0.81290010  0.20126310     0.77800
O260        O  0.42931083  0.76383637  0.14532659    -0.55600
O261        O  0.35692808  0.83843346  0.18577841    -0.45700
O262        O  0.43836089  0.82194868  0.15943001    -0.52100
C263        C  0.37476805  0.85304445  0.11662132     0.88000
O264        O  0.31186635  0.78783001  0.14868771    -0.54000
O265        O  0.38241021  0.78190963  0.19235939    -0.57300
In266      In  0.64997960  0.80181233  0.15353470     1.36900
C267        C  0.57291014  0.79012871  0.15202532     0.80400
O268        O  0.64383330  0.78170910  0.19244075    -0.58000
O269        O  0.67007605  0.83792326  0.18595027    -0.48900
C270        C  0.70857606  0.75141758  0.14537972     0.73100
O271        O  0.67282008  0.74100303  0.14543803    -0.43800
C272        C  0.65164686  0.85313836  0.11679643     0.77800
O273        O  0.59708299  0.76388258  0.14528242    -0.55600
O274        O  0.65915047  0.86310382  0.13857724    -0.45700
O275        O  0.58806002  0.82185644  0.15960148    -0.52100
C276        C  0.65899715  0.81243731  0.20139425     0.88000
O277        O  0.71453699  0.78777264  0.14875933    -0.54000
O278        O  0.64523025  0.81683740  0.11360523    -0.57300
In279      In  0.34369595  0.10830408  0.32292824     1.36900
C280        C  0.33211074  0.03121846  0.32447301     0.80400
O281        O  0.32362810  0.10222936  0.28402666    -0.58000
O282        O  0.37990397  0.12834136  0.29052790    -0.48900
C283        C  0.29333451  0.16693822  0.33100205     0.73100
O284        O  0.28293670  0.13117745  0.33111303    -0.43800
C285        C  0.39476905  0.11006877  0.35975474     0.77800
O286        O  0.30570455  0.05536449  0.33101111    -0.55600
O287        O  0.40493203  0.11726207  0.33796313    -0.45700
O288        O  0.36394668  0.04640132  0.31708389    -0.52100
C289        C  0.35439869  0.11735128  0.27508158     0.88000
O290        O  0.32966924  0.17289256  0.32748921    -0.54000
O291        O  0.35840013  0.10395423  0.36290719    -0.57300
In292      In  0.34391884  0.83474394  0.32291584     1.36900
C293        C  0.33219030  0.91180416  0.32442277     0.80400
O294        O  0.35864336  0.84002541  0.36283111    -0.58000
O295        O  0.40490688  0.82490377  0.33809414    -0.48900
C296        C  0.29360137  0.77604209  0.33106273     0.73100
O297        O  0.28309347  0.81175811  0.33083120    -0.43800
C298        C  0.35504665  0.82588262  0.27509388     0.77800
O299        O  0.30580884  0.88759661  0.33093313    -0.55600
O300        O  0.38074543  0.81554248  0.29058894    -0.45700
O301        O  0.36406933  0.89669534  0.31706494    -0.52100
C302        C  0.39486270  0.83297416  0.35978347     0.88000
O303        O  0.33001589  0.77016569  0.32785566    -0.54000
O304        O  0.32388169  0.84023338  0.28397936    -0.57300
In305      In  0.84364588  0.60812842  0.82273948     1.36900
C306        C  0.83215015  0.53108103  0.82420639     0.80400
O307        O  0.82376985  0.60184571  0.78381974    -0.58000
O308        O  0.87987011  0.62829991  0.79038152    -0.48900
C309        C  0.79313616  0.66663701  0.83074808     0.73100
O310        O  0.78283411  0.63085193  0.83091654    -0.43800
C311        C  0.89461366  0.60983454  0.85962546     0.77800
O312        O  0.80568510  0.55517804  0.83072205    -0.55600
O313        O  0.90478678  0.61727775  0.83786874    -0.45700
O314        O  0.86400501  0.54629585  0.81686993    -0.52100
C315        C  0.85448481  0.61712996  0.77490829     0.88000
O316        O  0.82944939  0.67268092  0.82721675    -0.54000
O317        O  0.85827171  0.60349426  0.86272297    -0.57300
In318      In  0.84356424  0.33464902  0.82294653     1.36900
C319        C  0.83209712  0.41169461  0.82425367     0.80400
O320        O  0.85818788  0.34027115  0.86287635    -0.58000
O321        O  0.90446688  0.32472908  0.83826025    -0.48900
C322        C  0.79309849  0.27611315  0.83110480     0.73100
O323        O  0.78272434  0.31187056  0.83102199    -0.43800
C324        C  0.85456420  0.32567984  0.77511120     0.77800
O325        O  0.80563571  0.38762369  0.83083813    -0.55600
O326        O  0.88019138  0.31513489  0.79060374    -0.45700
O327        O  0.86392640  0.39645251  0.81691164    -0.52100
C328        C  0.89439286  0.33306906  0.85990584     0.88000
O329        O  0.82945999  0.27011394  0.82775706    -0.54000
O330        O  0.82352846  0.34030089  0.78400714    -0.57300
In331      In  0.18222144  0.60800831  0.82288995     1.36900
C332        C  0.19381288  0.53096454  0.82437801     0.80400
O333        O  0.16756080  0.60286682  0.86284569    -0.58000
O334        O  0.12122874  0.61774383  0.83810773    -0.48900
C335        C  0.23263252  0.66662196  0.83090237     0.73100
O336        O  0.24299507  0.63086139  0.83103227    -0.43800
C337        C  0.17127530  0.61681308  0.77504830     0.77800
O338        O  0.22024895  0.55511074  0.83087878    -0.55600
O339        O  0.14567696  0.62751172  0.79051281    -0.45700
O340        O  0.16194752  0.54612964  0.81702897    -0.52100
C341        C  0.13131464  0.60978519  0.85980895     0.88000
O342        O  0.19630379  0.67259679  0.82740331    -0.54000
O343        O  0.20225599  0.60211222  0.78397387    -0.57300
In344      In  0.18222433  0.33451941  0.82303000     1.36900
C345        C  0.19377513  0.41157191  0.82451069     0.80400
O346        O  0.20230163  0.34064910  0.78412715    -0.58000
O347        O  0.14601402  0.31455835  0.79061166    -0.48900
C348        C  0.23267800  0.27595889  0.83116723     0.73100
O349        O  0.24309525  0.31170846  0.83098698    -0.43800
C350        C  0.13111317  0.33283001  0.85984403     0.77800
O351        O  0.22009693  0.38744824  0.83122376    -0.55600
O352        O  0.12108540  0.32501518  0.83811389    -0.45700
O353        O  0.16202316  0.39638109  0.81699270    -0.52100
C354        C  0.17154167  0.32554739  0.77517002     0.88000
O355        O  0.19628621  0.26998523  0.82792420    -0.54000
O356        O  0.16737831  0.33957759  0.86295144    -0.57300
In357      In  0.14992728  0.30176729  0.65345003     1.36900
C358        C  0.07285742  0.28998878  0.65185300     0.80400
O359        O  0.14375124  0.28183143  0.69239602    -0.58000
O360        O  0.17005813  0.33797877  0.68582751    -0.48900
C361        C  0.20850120  0.25135731  0.64524881     0.73100
O362        O  0.17274520  0.24094857  0.64536263    -0.43800
C363        C  0.15163630  0.35305765  0.61670847     0.77800
O364        O  0.09708826  0.26365467  0.64532915    -0.55600
O365        O  0.15892115  0.36307958  0.63850718    -0.45700
O366        O  0.08794728  0.32185909  0.65923850    -0.52100
C367        C  0.15894215  0.31257402  0.70130941     0.88000
O368        O  0.21447897  0.28771425  0.64861434    -0.54000
O369        O  0.14543467  0.31672175  0.61350417    -0.57300
In370      In  0.87635598  0.30161607  0.65342648     1.36900
C371        C  0.95343681  0.28985685  0.65194633     0.80400
O372        O  0.88155630  0.31643063  0.61348868    -0.58000
O373        O  0.86665239  0.36266155  0.63827314    -0.48900
C374        C  0.81761433  0.25136285  0.64526673     0.73100
O375        O  0.85334651  0.24088531  0.64528558    -0.43800
C376        C  0.86742699  0.31264289  0.70127063     0.77800
O377        O  0.92922730  0.26345945  0.64548245    -0.55600
O378        O  0.85721234  0.33840400  0.68577965    -0.45700
O379        O  0.93831997  0.32174672  0.65926554    -0.52100
C380        C  0.87464694  0.35266626  0.61656630     0.88000
O381        O  0.81174126  0.28772463  0.64867837    -0.54000
O382        O  0.88167591  0.28144355  0.69237130    -0.57300
In383      In  0.87606970  0.64076353  0.65320566     1.36900
C384        C  0.95311674  0.65260902  0.65173623     0.80400
O385        O  0.88184917  0.66098186  0.69209028    -0.58000
O386        O  0.85664989  0.60428625  0.68563690    -0.48900
C387        C  0.81730643  0.69102689  0.64515587     0.73100
O388        O  0.85305155  0.70147496  0.64502019    -0.43800
C389        C  0.87440459  0.58960667  0.61641884     0.77800
O390        O  0.92890031  0.67888567  0.64508959    -0.55600
O391        O  0.86671311  0.57958833  0.63817053    -0.45700
O392        O  0.93802313  0.62076490  0.65917985    -0.52100
C393        C  0.86724206  0.62998367  0.70106141     0.88000
O394        O  0.81142511  0.65468110  0.64866254    -0.54000
O395        O  0.88096059  0.62589749  0.61326845    -0.57300
In396      In  0.14954661  0.64081331  0.65337749     1.36900
C397        C  0.07250622  0.65266201  0.65190519     0.80400
O398        O  0.14432467  0.62607898  0.61343276    -0.58000
O399        O  0.15931430  0.57980898  0.63818952    -0.48900
C400        C  0.20826788  0.69114853  0.64536113     0.73100
O401        O  0.17252279  0.70157292  0.64526596    -0.43800
C402        C  0.15839206  0.62971203  0.70121118     0.77800
O403        O  0.09674456  0.67903502  0.64542814    -0.55600
O404        O  0.16876083  0.60402365  0.68572673    -0.45700
O405        O  0.08757526  0.62073807  0.65922915    -0.52100
C406        C  0.15129360  0.58984670  0.61648866     0.88000
O407        O  0.21416952  0.65479442  0.64879939    -0.54000
O408        O  0.14398570  0.66084906  0.69231113    -0.57300
C409        C  0.01277128  0.58826552  0.95103359     0.89300
C410        C  0.04890894  0.60262313  0.93646720    -0.50900
C411        C  0.04869250  0.59024283  0.91263465     0.12300
C412        C  0.01289968  0.56461864  0.90564997     0.23200
C413        C  0.97669760  0.60258602  0.93639603    -0.51600
C414        C  0.97704962  0.59020578  0.91256155     0.12400
C415        C  0.01279427  0.54320753  0.94814428    -0.51100
C416        C  0.01286479  0.53081628  0.92444735     0.12900
H417        H  0.07225078  0.62085375  0.94418780     0.17500
H418        H  0.01295766  0.55450389  0.88626844     0.03200
H419        H  0.95330650  0.62079821  0.94407004     0.17800
H420        H  0.01276817  0.52280109  0.96353737     0.17600
C421        C  0.01282638  0.58818929  0.02520850     0.89300
C422        C  0.97673620  0.60249308  0.03982830    -0.50900
C423        C  0.97707336  0.59011334  0.06366830     0.12300
C424        C  0.01292341  0.56454288  0.07060571     0.23200
C425        C  0.04894923  0.60256054  0.03977939    -0.51600
C426        C  0.04871600  0.59018237  0.06362239     0.12400
C427        C  0.01286189  0.54312651  0.02812298    -0.51100
C428        C  0.01290592  0.53073848  0.05183076     0.12900
H429        H  0.95334506  0.62069716  0.03213893     0.17500
H430        H  0.01295882  0.55442994  0.08999454     0.03200
H431        H  0.07227828  0.62081914  0.03205841     0.17800
H432        H  0.01282812  0.52271921  0.01274163     0.17600
C433        C  0.01283035  0.35450022  0.95116546     0.89300
C434        C  0.97667257  0.34024937  0.93659167    -0.50900
C435        C  0.97695709  0.35263296  0.91275409     0.12300
C436        C  0.01283153  0.37815057  0.90577186     0.23200
C437        C  0.04888320  0.34007978  0.93655422    -0.51600
C438        C  0.04859664  0.35246395  0.91271416     0.12400
C439        C  0.01294015  0.39956487  0.94825370    -0.51100
C440        C  0.01293822  0.41195326  0.92454552     0.12900
H441        H  0.95327313  0.32207768  0.94430927     0.17500
H442        H  0.01282859  0.38826418  0.88638241     0.03200
H443        H  0.07221272  0.32180203  0.94424871     0.17800
H444        H  0.01299104  0.41997294  0.96363684     0.17600
C445        C  0.01284452  0.35441868  0.02532191     0.89300
C446        C  0.04905825  0.34020453  0.03985887    -0.50900
C447        C  0.04884364  0.35259218  0.06368837     0.12300
C448        C  0.01297200  0.37807176  0.07070144     0.23200
C449        C  0.97684964  0.33995971  0.03998256    -0.51600
C450        C  0.97720054  0.35234656  0.06381373     0.12400
C451        C  0.01271338  0.39947874  0.02820817    -0.51100
C452        C  0.01278767  0.41187256  0.05190509     0.12900
H453        H  0.07245260  0.32206760  0.03212056     0.17500
H454        H  0.01302963  0.38818816  0.09008369     0.03200
H455        H  0.95349966  0.32167199  0.03232322     0.17800
H456        H  0.01261021  0.41988442  0.01281332     0.17600
C457        C  0.13020439  0.47126094  0.52527358     0.89300
C458        C  0.14439186  0.50743352  0.53985465    -0.50900
C459        C  0.13187361  0.50719954  0.56366550     0.12300
C460        C  0.10628404  0.47135252  0.57061473     0.23200
C461        C  0.14453118  0.43523403  0.53996245    -0.51600
C462        C  0.13201169  0.43556891  0.56377600     0.12400
C463        C  0.08511642  0.47117191  0.52807962    -0.51100
C464        C  0.07257604  0.47121903  0.55175392     0.12900
H465        H  0.16263746  0.53079616  0.53216369     0.17500
H466        H  0.09605896  0.47139465  0.58997877     0.03200
H467        H  0.16286315  0.41189642  0.53233998     0.17800
H468        H  0.06479763  0.47108610  0.51264663     0.17600
C469        C  0.13030473  0.47128772  0.45111269     0.89300
C470        C  0.14449219  0.43512496  0.43652718    -0.50900
C471        C  0.13200230  0.43537945  0.41271172     0.12300
C472        C  0.10644486  0.47124115  0.40576061     0.23200
C473        C  0.14467004  0.50732699  0.43644256    -0.51600
C474        C  0.13218312  0.50702081  0.41262214     0.12400
C475        C  0.08522408  0.47138262  0.44828640    -0.51100
C476        C  0.07271308  0.47135493  0.42460885     0.12900
H477        H  0.16270139  0.41174350  0.44422184     0.17500
H478        H  0.09624233  0.47121304  0.38639302     0.03200
H479        H  0.16299860  0.53065718  0.44408422     0.17800
H480        H  0.06488536  0.47143166  0.46371053     0.17600
C481        C  0.89601111  0.47105689  0.52524094     0.89300
C482        C  0.88172225  0.43498770  0.53989926    -0.50900
C483        C  0.89419511  0.43531688  0.56371706     0.12300
C484        C  0.91983931  0.47115387  0.57059634     0.23200
C485        C  0.88172511  0.50718545  0.53982245    -0.51600
C486        C  0.89419107  0.50695433  0.56364390     0.12400
C487        C  0.94108955  0.47106632  0.52807546    -0.51100
C488        C  0.95358602  0.47111882  0.55175568     0.12900
H489        H  0.86346372  0.41161246  0.53225007     0.17500
H490        H  0.93002479  0.47119165  0.58996647     0.03200
H491        H  0.86344605  0.53051310  0.53212558     0.17800
H492        H  0.96143645  0.47103373  0.51265548     0.17600
C493        C  0.89610837  0.47098399  0.45109835     0.89300
C494        C  0.88180329  0.50707498  0.43646969    -0.50900
C495        C  0.89431763  0.50683174  0.41265863     0.12300
C496        C  0.92000522  0.47105173  0.40575529     0.23200
C497        C  0.88188474  0.43487905  0.43647164    -0.51600
C498        C  0.89438253  0.43519851  0.41265768     0.12400
C499        C  0.94119427  0.47105000  0.44828713    -0.51100
C500        C  0.95372373  0.47109155  0.42461095     0.12900
H501        H  0.86351255  0.53040864  0.44413548     0.17500
H502        H  0.93021777  0.47108383  0.38638993     0.03200
H503        H  0.86360760  0.41150950  0.44413119     0.17800
H504        H  0.96151794  0.47108640  0.46371679     0.17600
In505      In  0.15013191  0.64092999  0.32298664     1.36900
C506        C  0.07306592  0.65267716  0.32459688     0.80400
O507        O  0.14417555  0.66121481  0.28409655    -0.58000
O508        O  0.16989082  0.60475075  0.29051674    -0.48900
C509        C  0.20882543  0.69123242  0.33109515     0.73100
O510        O  0.17308272  0.70168222  0.33109138    -0.43800
C511        C  0.15187848  0.58962373  0.35973159     0.77800
O512        O  0.09729021  0.67892077  0.33128035    -0.55600
O513        O  0.15920831  0.57962559  0.33793321    -0.45700
O514        O  0.08816085  0.62091849  0.31704103    -0.52100
C515        C  0.15906010  0.63038464  0.27510192     0.88000
O516        O  0.21473297  0.65487381  0.32768657    -0.54000
O517        O  0.14563570  0.62595077  0.36293678    -0.57300
In518      In  0.87658326  0.64083025  0.32309496     1.36900
C519        C  0.95365248  0.65268351  0.32456546     0.80400
O520        O  0.88160199  0.62588002  0.36302538    -0.58000
O521        O  0.86712359  0.57966582  0.33813484    -0.48900
C522        C  0.81789447  0.69114027  0.33129901     0.73100
O523        O  0.85364737  0.70155577  0.33135987    -0.43800
C524        C  0.86764693  0.62981289  0.27525680     0.77800
O525        O  0.92941951  0.67909170  0.33096670    -0.55600
O526        O  0.85708083  0.60420272  0.29075461    -0.45700
O527        O  0.93856506  0.62072938  0.31732305    -0.52100
C528        C  0.87489984  0.58961932  0.35987780     0.88000
O529        O  0.81197086  0.65481209  0.32778142    -0.54000
O530        O  0.88224121  0.66086188  0.28414549    -0.57300
In531      In  0.84382296  0.60810336  0.15357379     1.36900
C532        C  0.83221408  0.53104479  0.15222102     0.80400
O533        O  0.85846738  0.60241038  0.11365688    -0.58000
O534        O  0.90472871  0.61810834  0.13824787    -0.48900
C535        C  0.79342343  0.66670405  0.14539466     0.73100
O536        O  0.78302074  0.63095295  0.14547720    -0.43800
C537        C  0.85481955  0.61693030  0.20141621     0.77800
O538        O  0.80577882  0.55517739  0.14569713    -0.55600
O539        O  0.88049198  0.62744830  0.18594189    -0.45700
O540        O  0.86409385  0.54623188  0.15953336    -0.52100
C541        C  0.89465937  0.60970100  0.11661034     0.88000
O542        O  0.82978635  0.67267583  0.14876395    -0.54000
O543        O  0.82374237  0.60242868  0.19249935    -0.57300
In544      In  0.84361521  0.33454259  0.15351538     1.36900
C545        C  0.83212803  0.41162425  0.15208248     0.80400
O546        O  0.82366712  0.34071414  0.19242517    -0.58000
O547        O  0.87985204  0.31444635  0.18587034    -0.48900
C548        C  0.79318130  0.27594369  0.14549727     0.73100
O549        O  0.78280150  0.31170450  0.14542494    -0.43800
C550        C  0.89469542  0.33276915  0.11670093     0.77800
O551        O  0.80574955  0.38753565  0.14540451    -0.55600
O552        O  0.90478275  0.32530291  0.13846782    -0.45700
O553        O  0.86389505  0.39638301  0.15953030    -0.52100
C554        C  0.85442460  0.32553088  0.20133868     0.88000
O555        O  0.82952440  0.26997554  0.14893847    -0.54000
O556        O  0.85838245  0.33920575  0.11355847    -0.57300
In557      In  0.18226587  0.60839695  0.15336371     1.36900
C558        C  0.19375918  0.53136084  0.15193400     0.80400
O559        O  0.20227510  0.60220676  0.19227787    -0.58000
O560        O  0.14614095  0.62858796  0.18576864    -0.48900
C561        C  0.23285294  0.66683684  0.14527258     0.73100
O562        O  0.24316338  0.63105984  0.14535050    -0.43800
C563        C  0.13124214  0.61001309  0.11648442     0.77800
O564        O  0.22012359  0.55546702  0.14525014    -0.55600
O565        O  0.12114458  0.61776445  0.13821115    -0.45700
O566        O  0.16199064  0.54656100  0.15941487    -0.52100
C567        C  0.17160280  0.61749851  0.20122210     0.88000
O568        O  0.19649209  0.67290132  0.14858027    -0.54000
O569        O  0.16753832  0.60340757  0.11340849    -0.57300
In570      In  0.18239076  0.33493005  0.15341341     1.36900
C571        C  0.19389045  0.41197798  0.15200228     0.80400
O572        O  0.16782210  0.34006596  0.11344426    -0.58000
O573        O  0.12142388  0.32528069  0.13816592    -0.48900
C574        C  0.23274030  0.27626562  0.14541626     0.73100
O575        O  0.24310739  0.31203010  0.14514654    -0.43800
C576        C  0.17141569  0.32612234  0.20124675     0.77800
O577        O  0.22042547  0.38789159  0.14557963    -0.55600
O578        O  0.14580993  0.31544823  0.18577855    -0.45700
O579        O  0.16198469  0.39675034  0.15923990    -0.52100
C580        C  0.13155628  0.33321519  0.11646927     0.88000
O581        O  0.19643302  0.27031537  0.14903224    -0.54000
O582        O  0.20242085  0.34080020  0.19232743    -0.57300
In583      In  0.87623122  0.30162413  0.32298966     1.36900
C584        C  0.95329547  0.28996063  0.32444180     0.80400
O585        O  0.88211938  0.28164512  0.28406813    -0.58000
O586        O  0.85657416  0.33814105  0.29063734    -0.48900
C587        C  0.81753735  0.25126625  0.33101395     0.73100
O588        O  0.85327867  0.24081399  0.33099930    -0.43800
C589        C  0.87456443  0.35267871  0.35981340     0.77800
O590        O  0.92913543  0.26358808  0.33104090    -0.55600
O591        O  0.86678591  0.36272953  0.33808021    -0.45700
O592        O  0.93813480  0.32180344  0.31705709    -0.52100
C593        C  0.86730974  0.31258821  0.27516206     0.88000
O594        O  0.81163900  0.28764400  0.32767358    -0.54000
O595        O  0.88120247  0.31639586  0.36293003    -0.57300
In596      In  0.14974983  0.30194041  0.32291456     1.36900
C597        C  0.07269936  0.29009240  0.32429029     0.80400
O598        O  0.14412981  0.31657051  0.36284831    -0.58000
O599        O  0.15977658  0.36282019  0.33822439    -0.48900
C600        C  0.20849815  0.25168380  0.33103628     0.73100
O601        O  0.17275837  0.24122760  0.33110929    -0.43800
C602        C  0.15858506  0.31312723  0.27508189     0.77800
O603        O  0.09691784  0.26365177  0.33067264    -0.55600
O604        O  0.16865946  0.33892617  0.29057182    -0.45700
O605        O  0.08779210  0.32209028  0.31709968    -0.52100
C606        C  0.15140717  0.35276246  0.35987312     0.88000
O607        O  0.21438291  0.28803458  0.32755910    -0.54000
O608        O  0.14450881  0.28183000  0.28397629    -0.57300
C609        C  0.99522466  0.28471479  0.32526319    -0.10400
C610        C  0.03078256  0.28476445  0.32519467    -0.12000
C611        C  0.16596977  0.32204511  0.22721476    -0.10400
C612        C  0.16264429  0.31867660  0.24911989    -0.12000
C613        C  0.19902596  0.45390082  0.15111600    -0.10400
C614        C  0.19896144  0.48944646  0.15108861    -0.12000
C615        C  0.85981899  0.32138452  0.22730111    -0.10400
C616        C  0.86317100  0.31803143  0.24920219    -0.12000
C617        C  0.82696217  0.45356207  0.15127638    -0.10400
C618        C  0.82699847  0.48911701  0.15133914    -0.12000
C619        C  0.86026534  0.62097629  0.22738619    -0.10400
C620        C  0.86357454  0.62431546  0.24929313    -0.12000
C621        C  0.16635008  0.62175451  0.22719978    -0.10400
C622        C  0.16312261  0.62510973  0.24911388    -0.12000
C623        C  0.03114047  0.65797815  0.32550630    -0.10400
C624        C  0.99557792  0.65799290  0.32548114    -0.12000
C625        C  0.88411252  0.40496875  0.39516565    -0.10400
C626        C  0.87783216  0.38079570  0.37940360    -0.12000
C627        C  0.88416012  0.53715912  0.39519280    -0.10400
C628        C  0.87803811  0.56142359  0.37944851    -0.12000
C629        C  0.88471870  0.47099393  0.49922950    -0.10400
C630        C  0.88475702  0.47096223  0.47710100    -0.12000
C631        C  0.14211800  0.40502217  0.39527123    -0.10400
C632        C  0.14824504  0.38080578  0.37951186    -0.12000
C633        C  0.14246075  0.53724731  0.39509894    -0.10400
C634        C  0.14868212  0.56143303  0.37931378    -0.12000
C635        C  0.03106901  0.47131699  0.41877566    -0.10400
C636        C  0.99537027  0.47122642  0.41878027    -0.12000
C637        C  0.03092785  0.47116952  0.55758250    -0.10400
C638        C  0.99522870  0.47113925  0.55759375    -0.12000
C639        C  0.14156046  0.47124149  0.49926385    -0.10400
C640        C  0.14160167  0.47128096  0.47713101    -0.12000
C641        C  0.07927210  0.34248545  0.08108253    -0.10400
C642        C  0.10352340  0.33637091  0.09682547    -0.12000
C643        C  0.94697257  0.34206442  0.08130850    -0.10400
C644        C  0.92279633  0.33589000  0.09709007    -0.12000
C645        C  0.01281209  0.34326238  0.97718254    -0.10400
C646        C  0.01279685  0.34321896  0.99930676    -0.12000
C647        C  0.10317007  0.60676102  0.09685389    -0.10400
C648        C  0.07900590  0.60050193  0.08107420    -0.12000
C649        C  0.92267551  0.60651314  0.09695311    -0.10400
C650        C  0.94681013  0.60033424  0.08114940    -0.12000
C651        C  0.01286111  0.48914958  0.05776612    -0.10400
C652        C  0.01281054  0.45346642  0.05779823    -0.12000
C653        C  0.01295280  0.45353897  0.91860406    -0.10400
C654        C  0.01292416  0.48922160  0.91855846    -0.12000
C655        C  0.01276014  0.59941575  0.99918371    -0.10400
C656        C  0.01272584  0.59945601  0.97705615    -0.12000
C657        C  0.14816165  0.56175541  0.59687235    -0.10400
C658        C  0.14202668  0.53753884  0.58111254    -0.12000
C659        C  0.03059183  0.65797566  0.65096844    -0.10400
C660        C  0.99503408  0.65795867  0.65090045    -0.12000
C661        C  0.87765502  0.56145524  0.59684193    -0.10400
C662        C  0.88391415  0.53724527  0.58109652    -0.12000
C663        C  0.87782387  0.38080605  0.59696705    -0.10400
C664        C  0.88400201  0.40503537  0.58120886    -0.12000
C665        C  0.03093151  0.28465727  0.65096494    -0.10400
C666        C  0.99536818  0.28460688  0.65100917    -0.12000
C667        C  0.14226233  0.40537901  0.58131853    -0.10400
C668        C  0.14845782  0.38122680  0.59712120    -0.12000
C669        C  0.16303207  0.31798727  0.72728191    -0.10400
C670        C  0.16627158  0.32136620  0.74919210    -0.12000
C671        C  0.10300157  0.33597743  0.87945121    -0.10400
C672        C  0.07884326  0.34216698  0.89523932    -0.12000
C673        C  0.16584088  0.62087687  0.74907897    -0.10400
C674        C  0.16249620  0.62421609  0.72717371    -0.12000
C675        C  0.19901329  0.48904518  0.82530267    -0.10400
C676        C  0.19899473  0.45349453  0.82535550    -0.12000
C677        C  0.10325792  0.60665106  0.87944720    -0.10400
C678        C  0.07904403  0.60048304  0.89520962    -0.12000
C679        C  0.86001993  0.32153757  0.74914359    -0.10400
C680        C  0.86334944  0.31814654  0.72723819    -0.12000
C681        C  0.92242513  0.33627931  0.87954896    -0.10400
C682        C  0.94661800  0.34245348  0.89531710    -0.12000
C683        C  0.85986913  0.62129593  0.74894292    -0.10400
C684        C  0.86317565  0.62462650  0.72703588    -0.12000
C685        C  0.82697354  0.48916202  0.82507802    -0.10400
C686        C  0.82695687  0.45361641  0.82508525    -0.12000
C687        C  0.92264949  0.60663463  0.87927200    -0.10400
C688        C  0.94679715  0.60043868  0.89506873    -0.12000
C689        C  0.26566442  0.74439222  0.33367984    -0.10400
C690        C  0.24046450  0.71918331  0.33368823    -0.12000
C691        C  0.26535554  0.19854684  0.33359503    -0.10400
C692        C  0.24014875  0.22374310  0.33361073    -0.12000
C693        C  0.32689777  0.98928391  0.32536255    -0.10400
C694        C  0.32691954  0.95372599  0.32533901    -0.12000
C695        C  0.74018370  0.72344680  0.14276413    -0.10400
C696        C  0.76541801  0.69828113  0.14276865    -0.12000
C697        C  0.28619346  0.72350282  0.14272679    -0.10400
C698        C  0.26094123  0.69835221  0.14270678    -0.12000
C699        C  0.36379733  0.81841802  0.22722956    -0.10400
C700        C  0.36054312  0.82179218  0.24913513    -0.12000
C701        C  0.49542024  0.78486782  0.15111906    -0.10400
C702        C  0.53098021  0.78487286  0.15113010    -0.12000
C703        C  0.76102788  0.74426788  0.33392149    -0.10400
C704        C  0.78626417  0.71909684  0.33392392    -0.12000
C705        C  0.66636333  0.82109119  0.24927998    -0.10400
C706        C  0.66309549  0.81775356  0.22737079    -0.12000
C707        C  0.78588505  0.22331660  0.33355907    -0.10400
C708        C  0.76064266  0.19815163  0.33355222    -0.12000
C709        C  0.69938041  0.95332292  0.32545149    -0.10400
C710        C  0.69938437  0.98887591  0.32539157    -0.12000
C711        C  0.28594584  0.21947939  0.14286914    -0.10400
C712        C  0.26072914  0.24466145  0.14287783    -0.12000
C713        C  0.35972764  0.12152686  0.24911055    -0.10400
C714        C  0.36305979  0.12487736  0.22720545    -0.12000
C715        C  0.73998967  0.21913920  0.14289998    -0.10400
C716        C  0.76518711  0.24434588  0.14292851    -0.12000
C717        C  0.66245481  0.12417108  0.22722401    -0.10400
C718        C  0.66583231  0.12080073  0.24912850    -0.12000
C719        C  0.49517535  0.15800517  0.15120543    -0.10400
C720        C  0.53072306  0.15793652  0.15124659    -0.12000
C721        C  0.44695877  0.10060585  0.39518589    -0.10400
C722        C  0.42283089  0.10686480  0.37938685    -0.12000
C723        C  0.57913964  0.10040867  0.39524347    -0.10400
C724        C  0.60335836  0.10656481  0.37948203    -0.12000
C725        C  0.51300164  0.09948552  0.49926781    -0.10400
C726        C  0.51298835  0.09955583  0.47714058    -0.12000
C727        C  0.44706746  0.84224303  0.39519896    -0.10400
C728        C  0.42293008  0.83607596  0.37940337    -0.12000
C729        C  0.60327239  0.83601817  0.37949908    -0.10400
C730        C  0.57913391  0.84227961  0.39528709    -0.12000
C731        C  0.51296664  0.95352701  0.41875564    -0.10400
C732        C  0.51294510  0.98921637  0.41871551    -0.12000
C733        C  0.51292496  0.98897888  0.55768464    -0.10400
C734        C  0.51286308  0.95328965  0.55769913    -0.12000
C735        C  0.51279327  0.84292037  0.49928659    -0.10400
C736        C  0.51288442  0.84299280  0.47716338    -0.12000
C737        C  0.64848808  0.88133482  0.09721630    -0.10400
C738        C  0.64233080  0.90550148  0.08141222    -0.12000
C739        C  0.64814642  0.06206946  0.09672342    -0.10400
C740        C  0.64204073  0.03780857  0.08097957    -0.12000
C741        C  0.64136502  0.97100511  0.97710598    -0.10400
C742        C  0.64137061  0.97104573  0.99924281    -0.12000
C743        C  0.38403573  0.90549193  0.08129896    -0.10400
C744        C  0.37789937  0.88124048  0.09705020    -0.12000
C745        C  0.37798693  0.06196827  0.09695323    -0.10400
C746        C  0.38419009  0.03776260  0.08119368    -0.12000
C747        C  0.49531226  0.97136398  0.05774635    -0.10400
C748        C  0.53100468  0.97129388  0.05773477    -0.12000
C749        C  0.53094074  0.97134847  0.91866967    -0.10400
C750        C  0.49524780  0.97135161  0.91868607    -0.12000
C751        C  0.38488698  0.97133542  0.97718078    -0.10400
C752        C  0.38489014  0.97144761  0.99931314    -0.12000
C753        C  0.76507237  0.24454999  0.83371122    -0.10400
C754        C  0.73985825  0.21936102  0.83371209    -0.12000
C755        C  0.64241376  0.03697970  0.89507498    -0.10400
C756        C  0.64854173  0.06120893  0.87930316    -0.12000
C757        C  0.28589067  0.21917851  0.83378856    -0.10400
C758        C  0.26068132  0.24437230  0.83377572    -0.12000
C759        C  0.49518928  0.15783542  0.82544658    -0.10400
C760        C  0.53075106  0.15780063  0.82549172    -0.12000
C761        C  0.38397896  0.03725551  0.89518028    -0.10400
C762        C  0.37781147  0.06149720  0.87942745    -0.12000
C763        C  0.26530841  0.19819264  0.64257817    -0.10400
C764        C  0.24009076  0.22337536  0.64258974    -0.12000
C765        C  0.36338709  0.12463557  0.74921636    -0.10400
C766        C  0.36011339  0.12128648  0.72730631    -0.12000
C767        C  0.42253282  0.10634489  0.59690639    -0.10400
C768        C  0.44667760  0.10012538  0.58111456    -0.12000
C769        C  0.26511850  0.74431163  0.64287049    -0.10400
C770        C  0.23990647  0.71911724  0.64283900    -0.12000
C771        C  0.32673190  0.95350051  0.65109056    -0.10400
C772        C  0.32673717  0.98905259  0.65116027    -0.12000
C773        C  0.44675909  0.84196685  0.58122772    -0.10400
C774        C  0.42260721  0.83575355  0.59701775    -0.12000
C775        C  0.76045195  0.74417895  0.64259996    -0.10400
C776        C  0.78564866  0.71896921  0.64259770    -0.12000
C777        C  0.60318117  0.83596028  0.59689038    -0.10400
C778        C  0.57894532  0.84210382  0.58114665    -0.12000
C779        C  0.78594893  0.22343788  0.64267114    -0.10400
C780        C  0.76070401  0.19827169  0.64269438    -0.12000
C781        C  0.66278657  0.12477634  0.74920881    -0.10400
C782        C  0.66604714  0.12140422  0.72730127    -0.12000
C783        C  0.69912262  0.98919228  0.65098158    -0.10400
C784        C  0.69920042  0.95363393  0.65098980    -0.12000
C785        C  0.57873656  0.10043113  0.58131006    -0.10400
C786        C  0.60283728  0.10669926  0.59712078    -0.12000
C787        C  0.73985584  0.72334229  0.83332441    -0.10400
C788        C  0.76508294  0.69817400  0.83330846    -0.12000
C789        C  0.66255731  0.81844029  0.74901470    -0.10400
C790        C  0.66591096  0.82177008  0.72711155    -0.12000
C791        C  0.64793936  0.88050669  0.87944564    -0.10400
C792        C  0.64181860  0.90470182  0.89522357    -0.12000
C793        C  0.26064239  0.69819958  0.83347570    -0.10400
C794        C  0.28587866  0.72336441  0.83351621    -0.12000
C795        C  0.36307839  0.81792684  0.74920442    -0.10400
C796        C  0.35974717  0.82128338  0.72729804    -0.12000
C797        C  0.53065902  0.78475245  0.82499556    -0.10400
C798        C  0.49511065  0.78476946  0.82508411    -0.12000
C799        C  0.37788920  0.88075668  0.87955292    -0.10400
C800        C  0.38408559  0.90496208  0.89531652    -0.12000
loop_ 
_geom_bond_atom_site_label_1 
_geom_bond_atom_site_label_2 
_geom_bond_distance 
_geom_bond_site_symmetry_2 
_ccdc_geom_bond_type 
In1           O3   2.238       .  S
In1           O4   2.255       .  S
In1          O12   2.249       .  S
In1           O6   2.240       .  S
In1           O8   2.246       .  S
In1           O9   2.249       .  S
In1          O10   2.225       .  S
In1          O13   2.244       .  S
C2            O8   1.262       .  A
C2           O10   1.259       .  A
C2          C798   1.429       .  S
O3           C11   1.258       .  A
O4           C11   1.262       .  A
C5           O12   1.260       .  A
C5            O6   1.259       .  A
C5          C794   1.434       .  S
C7            O9   1.261       .  A
C7           O13   1.259       .  A
C7          C799   1.436       .  S
C11         C795   1.436       .  S
In14         O16   2.243       .  S
In14         O17   2.248       .  S
In14         O25   2.249       .  S
In14         O19   2.241       .  S
In14         O21   2.246       .  S
In14         O22   2.255       .  S
In14         O23   2.225       .  S
In14         O26   2.238       .  S
C15          O21   1.262       .  A
C15          O23   1.259       .  A
C15         C797   1.429       .  S
O16          C24   1.259       .  A
O17          C24   1.261       .  A
C18          O25   1.260       .  A
C18          O19   1.259       .  A
C18         C787   1.434       .  S
C20          O22   1.262       .  A
C20          O26   1.258       .  A
C20         C789   1.435       .  S
C24         C791   1.436       .  S
In27         O29   2.238       .  S
In27         O30   2.255       .  S
In27         O38   2.250       .  S
In27         O32   2.241       .  S
In27         O34   2.247       .  S
In27         O35   2.248       .  S
In27         O36   2.226       .  S
In27         O39   2.242       .  S
C28          O34   1.262       .  A
C28          O36   1.259       .  A
C28         C783   1.430   1_545  S
O29          C37   1.258       .  A
O30          C37   1.262       .  A
C31          O38   1.260       .  A
C31          O32   1.259       .  A
C31         C780   1.435       .  S
C33          O35   1.261       .  A
C33          O39   1.259       .  A
C33         C786   1.435       .  S
C37         C782   1.436       .  S
In40         O42   2.242       .  S
In40         O43   2.247       .  S
In40         O51   2.250       .  S
In40         O45   2.241       .  S
In40         O47   2.247       .  S
In40         O48   2.254       .  S
In40         O49   2.226       .  S
In40         O52   2.238       .  S
C41          O47   1.262       .  A
C41          O49   1.259       .  A
C41         C784   1.430       .  S
O42          C50   1.259       .  A
O43          C50   1.261       .  A
C44          O51   1.260       .  A
C44          O45   1.259       .  A
C44         C775   1.435       .  S
C46          O48   1.262       .  A
C46          O52   1.258       .  A
C46         C790   1.435       .  S
C50         C777   1.435       .  S
In53         O55   2.238       .  S
In53         O56   2.255       .  S
In53         O64   2.249       .  S
In53         O58   2.240       .  S
In53         O60   2.247       .  S
In53         O61   2.247       .  S
In53         O62   2.226       .  S
In53         O65   2.242       .  S
C54          O60   1.262       .  A
C54          O62   1.259       .  A
C54         C771   1.430       .  S
O55          C63   1.258       .  A
O56          C63   1.262       .  A
C57          O64   1.260       .  A
C57          O58   1.259       .  A
C57         C769   1.435       .  S
C59          O61   1.261       .  A
C59          O65   1.259       .  A
C59         C774   1.435       .  S
C63         C796   1.436       .  S
In66         O68   2.242       .  S
In66         O69   2.248       .  S
In66         O77   2.250       .  S
In66         O71   2.240       .  S
In66         O73   2.246       .  S
In66         O74   2.256       .  S
In66         O75   2.226       .  S
In66         O78   2.238       .  S
C67          O73   1.262       .  A
C67          O75   1.259       .  A
C67         C772   1.430   1_545  S
O68          C76   1.259       .  A
O69          C76   1.261       .  A
C70          O77   1.260       .  A
C70          O71   1.259       .  A
C70         C763   1.435       .  S
C72          O74   1.262       .  A
C72          O78   1.258       .  A
C72         C766   1.436       .  S
C76         C767   1.435       .  S
In79         O81   2.243       .  S
In79         O82   2.248       .  S
In79         O90   2.250       .  S
In79         O84   2.241       .  S
In79         O86   2.247       .  S
In79         O87   2.255       .  S
In79         O88   2.226       .  S
In79         O91   2.239       .  S
C80          O86   1.262       .  A
C80          O88   1.259       .  A
C80         C759   1.430       .  S
O81          C89   1.259       .  A
O82          C89   1.261       .  A
C83          O90   1.260       .  A
C83          O84   1.259       .  A
C83         C757   1.435       .  S
C85          O87   1.262       .  A
C85          O91   1.258       .  A
C85         C765   1.436       .  S
C89         C762   1.435       .  S
In92         O94   2.239       .  S
In92         O95   2.255       .  S
In92        O103   2.249       .  S
In92         O97   2.241       .  S
In92         O99   2.247       .  S
In92        O100   2.249       .  S
In92        O101   2.226       .  S
In92        O104   2.243       .  S
C93          O99   1.262       .  A
C93         O101   1.259       .  A
C93         C760   1.430       .  S
O94         C102   1.258       .  A
O95         C102   1.262       .  A
C96         O103   1.260       .  A
C96          O97   1.259       .  A
C96         C754   1.434       .  S
C98         O100   1.261       .  A
C98         O104   1.259       .  A
C98         C756   1.436       .  S
C102        C781   1.436       .  S
C105        C106   1.536   1_565  S
C105        C111   1.532       .  S
C105        C109   1.537       .  S
C105        C751   1.470       .  S
C106        H113   1.087       .  S
C106        C107   1.367       .  D
C107        C108   1.537   1_545  S
C107        C761   1.441       .  S
C108        C112   1.536       .  S
C108        C110   1.537       .  S
C108        H114   1.112       .  S
C109        H115   1.087       .  S
C109        C110   1.367       .  D
C110        C800   1.442       .  S
C111        H116   1.087       .  S
C111        C112   1.360       .  D
C112        C750   1.443       .  S
C117        C118   1.536       .  S
C117        C123   1.532       .  S
C117        C121   1.537   1_565  S
C117        C752   1.470   1_554  S
C118        H125   1.087       .  S
C118        C119   1.367       .  D
C119        C120   1.537       .  S
C119        C743   1.441       .  S
C120        C124   1.536       .  S
C120        C122   1.537   1_565  S
C120        H126   1.112       .  S
C121        H127   1.087       .  S
C121        C122   1.367       .  D
C122        C746   1.442       .  S
C123        H128   1.087       .  S
C123        C124   1.360       .  D
C124        C747   1.443       .  S
C129        C130   1.537       .  S
C129        C135   1.532       .  S
C129        C133   1.537   1_565  S
C129        C741   1.471       .  S
C130        H137   1.087       .  S
C130        C131   1.367       .  D
C131        C132   1.537       .  S
C131        C792   1.442       .  S
C132        C136   1.536       .  S
C132        C134   1.537   1_565  S
C132        H138   1.112       .  S
C133        H139   1.087       .  S
C133        C134   1.367       .  D
C134        C755   1.442       .  S
C135        H140   1.087       .  S
C135        C136   1.360       .  D
C136        C749   1.443       .  S
C141        C142   1.537   1_565  S
C141        C147   1.532       .  S
C141        C145   1.537       .  S
C141        C742   1.471   1_554  S
C142        H149   1.087       .  S
C142        C143   1.367       .  D
C143        C144   1.537   1_545  S
C143        C740   1.442       .  S
C144        C148   1.536       .  S
C144        C146   1.537       .  S
C144        H150   1.112       .  S
C145        H151   1.087       .  S
C145        C146   1.367       .  D
C146        C738   1.442       .  S
C147        H152   1.087       .  S
C147        C148   1.360       .  D
C148        C748   1.443       .  S
C153        C154   1.536       .  S
C153        C159   1.532       .  S
C153        C157   1.536       .  S
C153        C735   1.469       .  S
C154        H161   1.087       .  S
C154        C155   1.366       .  D
C155        C156   1.537       .  S
C155        C778   1.441       .  S
C156        C160   1.536       .  S
C156        C158   1.537       .  S
C156        H162   1.112       .  S
C157        H163   1.087       .  S
C157        C158   1.366       .  D
C158        C773   1.441       .  S
C159        H164   1.087       .  S
C159        C160   1.360       .  D
C160        C734   1.443       .  S
C165        C166   1.536       .  S
C165        C171   1.532       .  S
C165        C169   1.536       .  S
C165        C736   1.469       .  S
C166        H173   1.087       .  S
C166        C167   1.366       .  D
C167        C168   1.536       .  S
C167        C727   1.441       .  S
C168        C172   1.536       .  S
C168        C170   1.537       .  S
C168        H174   1.112       .  S
C169        H175   1.087       .  S
C169        C170   1.367       .  D
C170        C730   1.441       .  S
C171        H176   1.087       .  S
C171        C172   1.360       .  D
C172        C731   1.444       .  S
C177        C178   1.536       .  S
C177        C183   1.532       .  S
C177        C181   1.536       .  S
C177        C725   1.470       .  S
C178        H185   1.087       .  S
C178        C179   1.366       .  D
C179        C180   1.537       .  S
C179        C768   1.441       .  S
C180        C184   1.536       .  S
C180        C182   1.537       .  S
C180        H186   1.112       .  S
C181        H187   1.087       .  S
C181        C182   1.367       .  D
C182        C785   1.441       .  S
C183        H188   1.087       .  S
C183        C184   1.360       .  D
C184        C733   1.444   1_545  S
C189        C190   1.536       .  S
C189        C195   1.532       .  S
C189        C193   1.536       .  S
C189        C726   1.470       .  S
C190        H197   1.087       .  S
C190        C191   1.366       .  D
C191        C192   1.537       .  S
C191        C723   1.441       .  S
C192        C196   1.536       .  S
C192        C194   1.537       .  S
C192        H198   1.112       .  S
C193        H199   1.087       .  S
C193        C194   1.367       .  D
C194        C721   1.441       .  S
C195        H200   1.087       .  S
C195        C196   1.359       .  D
C196        C732   1.443   1_545  S
In201       O203   2.244       .  S
In201       O204   2.249       .  S
In201       O212   2.249       .  S
In201       O206   2.241       .  S
In201       O208   2.245       .  S
In201       O209   2.255       .  S
In201       O210   2.225       .  S
In201       O213   2.239       .  S
C202        O208   1.262       .  A
C202        O210   1.259       .  A
C202        C720   1.429       .  S
O203        C211   1.259       .  A
O204        C211   1.261       .  A
C205        O212   1.260       .  A
C205        O206   1.259       .  A
C205        C715   1.434       .  S
C207        O209   1.262       .  A
C207        O213   1.258       .  A
C207        C717   1.436       .  S
C211        C739   1.436       .  S
In214       O216   2.238       .  S
In214       O217   2.254       .  S
In214       O225   2.249       .  S
In214       O219   2.241       .  S
In214       O221   2.246       .  S
In214       O222   2.248       .  S
In214       O223   2.224       .  S
In214       O226   2.243       .  S
C215        O221   1.262       .  A
C215        O223   1.259       .  A
C215        C719   1.429       .  S
O216        C224   1.258       .  A
O217        C224   1.262       .  A
C218        O225   1.260       .  A
C218        O219   1.259       .  A
C218        C711   1.435       .  S
C220        O222   1.261       .  A
C220        O226   1.259       .  A
C220        C745   1.436       .  S
C224        C714   1.435       .  S
In227       O229   2.243       .  S
In227       O230   2.247       .  S
In227       O238   2.250       .  S
In227       O232   2.240       .  S
In227       O234   2.247       .  S
In227       O235   2.255       .  S
In227       O236   2.226       .  S
In227       O239   2.239       .  S
C228        O234   1.262       .  A
C228        O236   1.259       .  A
C228        C710   1.430   1_545  S
O229        C237   1.259       .  A
O230        C237   1.261       .  A
C231        O238   1.260       .  A
C231        O232   1.259       .  A
C231        C708   1.435       .  S
C233        O235   1.262       .  A
C233        O239   1.258       .  A
C233        C718   1.436       .  S
C237        C724   1.435       .  S
In240       O242   2.238       .  S
In240       O243   2.255       .  S
In240       O251   2.250       .  S
In240       O245   2.241       .  S
In240       O247   2.246       .  S
In240       O248   2.248       .  S
In240       O249   2.226       .  S
In240       O252   2.242       .  S
C241        O247   1.262       .  A
C241        O249   1.259       .  A
C241        C709   1.430       .  S
O242        C250   1.258       .  A
O243        C250   1.262       .  A
C244        O251   1.260       .  A
C244        O245   1.259       .  A
C244        C703   1.435       .  S
C246        O248   1.261       .  A
C246        O252   1.259       .  A
C246        C729   1.435       .  S
C250        C705   1.436       .  S
In253       O255   2.243       .  S
In253       O256   2.248       .  S
In253       O264   2.250       .  S
In253       O258   2.241       .  S
In253       O260   2.247       .  S
In253       O261   2.255       .  S
In253       O262   2.225       .  S
In253       O265   2.238       .  S
C254        O260   1.262       .  A
C254        O262   1.259       .  A
C254        C701   1.430       .  S
O255        C263   1.259       .  A
O256        C263   1.261       .  A
C257        O264   1.259       .  A
C257        O258   1.259       .  A
C257        C697   1.434       .  S
C259        O261   1.262       .  A
C259        O265   1.258       .  A
C259        C699   1.435       .  S
C263        C744   1.435       .  S
In266       O268   2.239       .  S
In266       O269   2.255       .  S
In266       O277   2.249       .  S
In266       O271   2.241       .  S
In266       O273   2.247       .  S
In266       O274   2.249       .  S
In266       O275   2.226       .  S
In266       O278   2.243       .  S
C267        O273   1.262       .  A
C267        O275   1.259       .  A
C267        C702   1.430       .  S
O268        C276   1.258       .  A
O269        C276   1.262       .  A
C270        O277   1.260       .  A
C270        O271   1.259       .  A
C270        C695   1.435       .  S
C272        O274   1.261       .  A
C272        O278   1.259       .  A
C272        C737   1.436       .  S
C276        C706   1.436       .  S
In279       O281   2.238       .  S
In279       O282   2.254       .  S
In279       O290   2.249       .  S
In279       O284   2.241       .  S
In279       O286   2.247       .  S
In279       O287   2.248       .  S
In279       O288   2.226       .  S
In279       O291   2.242       .  S
C280        O286   1.262       .  A
C280        O288   1.259       .  A
C280        C693   1.430   1_545  S
O281        C289   1.258       .  A
O282        C289   1.262       .  A
C283        O290   1.260       .  A
C283        O284   1.259       .  A
C283        C691   1.435       .  S
C285        O287   1.261       .  A
C285        O291   1.259       .  A
C285        C722   1.435       .  S
C289        C713   1.435       .  S
In292       O294   2.242       .  S
In292       O295   2.247       .  S
In292       O303   2.250       .  S
In292       O297   2.241       .  S
In292       O299   2.247       .  S
In292       O300   2.255       .  S
In292       O301   2.226       .  S
In292       O304   2.238       .  S
C293        O299   1.262       .  A
C293        O301   1.259       .  A
C293        C694   1.430       .  S
O294        C302   1.259       .  A
O295        C302   1.261       .  A
C296        O303   1.260       .  A
C296        O297   1.259       .  A
C296        C689   1.435       .  S
C298        O300   1.262       .  A
C298        O304   1.258       .  A
C298        C700   1.435       .  S
C302        C728   1.435       .  S
In305       O307   2.238       .  S
In305       O308   2.254       .  S
In305       O316   2.249       .  S
In305       O310   2.240       .  S
In305       O312   2.246       .  S
In305       O313   2.248       .  S
In305       O314   2.225       .  S
In305       O317   2.243       .  S
C306        O312   1.262       .  A
C306        O314   1.259       .  A
C306        C685   1.429       .  S
O307        C315   1.258       .  A
O308        C315   1.262       .  A
C309        O316   1.260       .  A
C309        O310   1.259       .  A
C309        C788   1.434       .  S
C311        O313   1.261       .  A
C311        O317   1.259       .  A
C311        C687   1.435       .  S
C315        C683   1.435       .  S
In318       O320   2.242       .  S
In318       O321   2.248       .  S
In318       O329   2.249       .  S
In318       O323   2.240       .  S
In318       O325   2.245       .  S
In318       O326   2.255       .  S
In318       O327   2.225       .  S
In318       O330   2.238       .  S
C319        O325   1.262       .  A
C319        O327   1.259       .  A
C319        C686   1.429       .  S
O320        C328   1.259       .  A
O321        C328   1.261       .  A
C322        O329   1.260       .  A
C322        O323   1.259       .  A
C322        C753   1.434       .  S
C324        O326   1.262       .  A
C324        O330   1.258       .  A
C324        C679   1.436       .  S
C328        C681   1.435       .  S
In331       O333   2.243       .  S
In331       O334   2.248       .  S
In331       O342   2.249       .  S
In331       O336   2.240       .  S
In331       O338   2.246       .  S
In331       O339   2.255       .  S
In331       O340   2.225       .  S
In331       O343   2.238       .  S
C332        O338   1.262       .  A
C332        O340   1.259       .  A
C332        C675   1.429       .  S
O333        C341   1.259       .  A
O334        C341   1.261       .  A
C335        O342   1.260       .  A
C335        O336   1.259       .  A
C335        C793   1.434       .  S
C337        O339   1.262       .  A
C337        O343   1.258       .  A
C337        C673   1.436       .  S
C341        C677   1.435       .  S
In344       O346   2.238       .  S
In344       O347   2.255       .  S
In344       O355   2.250       .  S
In344       O349   2.241       .  S
In344       O351   2.246       .  S
In344       O352   2.248       .  S
In344       O353   2.225       .  S
In344       O356   2.242       .  S
C345        O351   1.262       .  A
C345        O353   1.259       .  A
C345        C676   1.430       .  S
O346        C354   1.258       .  A
O347        C354   1.262       .  A
C348        O355   1.260       .  A
C348        O349   1.259       .  A
C348        C758   1.435       .  S
C350        O352   1.261       .  A
C350        O356   1.259       .  A
C350        C671   1.435       .  S
C354        C670   1.436       .  S
In357       O359   2.239       .  S
In357       O360   2.255       .  S
In357       O368   2.250       .  S
In357       O362   2.241       .  S
In357       O364   2.247       .  S
In357       O365   2.248       .  S
In357       O366   2.226       .  S
In357       O369   2.243       .  S
C358        O364   1.262       .  A
C358        O366   1.259       .  A
C358        C665   1.430       .  S
O359        C367   1.258       .  A
O360        C367   1.262       .  A
C361        O368   1.260       .  A
C361        O362   1.259       .  A
C361        C764   1.435       .  S
C363        O365   1.261       .  A
C363        O369   1.259       .  A
C363        C668   1.436       .  S
C367        C669   1.436       .  S
In370       O372   2.243       .  S
In370       O373   2.248       .  S
In370       O381   2.250       .  S
In370       O375   2.241       .  S
In370       O377   2.247       .  S
In370       O378   2.255       .  S
In370       O379   2.226       .  S
In370       O382   2.239       .  S
C371        O377   1.262       .  A
C371        O379   1.259       .  A
C371        C666   1.430       .  S
O372        C380   1.259       .  A
O373        C380   1.261       .  A
C374        O381   1.260       .  A
C374        O375   1.259       .  A
C374        C779   1.435       .  S
C376        O378   1.262       .  A
C376        O382   1.258       .  A
C376        C680   1.436       .  S
C380        C663   1.435       .  S
In383       O385   2.238       .  S
In383       O386   2.254       .  S
In383       O394   2.250       .  S
In383       O388   2.241       .  S
In383       O390   2.247       .  S
In383       O391   2.248       .  S
In383       O392   2.226       .  S
In383       O395   2.243       .  S
C384        O390   1.262       .  A
C384        O392   1.259       .  A
C384        C660   1.430       .  S
O385        C393   1.258       .  A
O386        C393   1.262       .  A
C387        O394   1.260       .  A
C387        O388   1.259       .  A
C387        C776   1.435       .  S
C389        O391   1.261       .  A
C389        O395   1.259       .  A
C389        C661   1.436       .  S
C393        C684   1.435       .  S
In396       O398   2.243       .  S
In396       O399   2.248       .  S
In396       O407   2.250       .  S
In396       O401   2.241       .  S
In396       O403   2.247       .  S
In396       O404   2.255       .  S
In396       O405   2.226       .  S
In396       O408   2.238       .  S
C397        O403   1.262       .  A
C397        O405   1.259       .  A
C397        C659   1.430       .  S
O398        C406   1.259       .  A
O399        C406   1.261       .  A
C400        O407   1.260       .  A
C400        O401   1.259       .  A
C400        C770   1.435       .  S
C402        O404   1.262       .  A
C402        O408   1.258       .  A
C402        C674   1.436       .  S
C406        C657   1.435       .  S
C409        C410   1.536       .  S
C409        C415   1.532       .  S
C409        C413   1.536   1_455  S
C409        C656   1.470       .  S
C410        H417   1.087       .  S
C410        C411   1.366       .  D
C411        C412   1.537       .  S
C411        C678   1.441       .  S
C412        C416   1.536       .  S
C412        C414   1.537   1_455  S
C412        H418   1.112       .  S
C413        H419   1.087       .  S
C413        C414   1.367       .  D
C414        C688   1.441       .  S
C415        H420   1.087       .  S
C415        C416   1.360       .  D
C416        C654   1.443       .  S
C421        C422   1.536   1_455  S
C421        C427   1.532       .  S
C421        C425   1.537       .  S
C421        C655   1.470   1_554  S
C422        H429   1.087       .  S
C422        C423   1.366       .  D
C423        C424   1.537   1_655  S
C423        C650   1.441       .  S
C424        C428   1.536       .  S
C424        C426   1.537       .  S
C424        H430   1.112       .  S
C425        H431   1.087       .  S
C425        C426   1.367       .  D
C426        C648   1.442       .  S
C427        H432   1.087       .  S
C427        C428   1.360       .  D
C428        C651   1.443       .  S
C433        C434   1.536   1_455  S
C433        C439   1.532       .  S
C433        C437   1.536       .  S
C433        C645   1.470       .  S
C434        H441   1.087       .  S
C434        C435   1.366       .  D
C435        C436   1.537   1_655  S
C435        C682   1.441       .  S
C436        C440   1.535       .  S
C436        C438   1.537       .  S
C436        H442   1.112       .  S
C437        H443   1.087       .  S
C437        C438   1.367       .  D
C438        C672   1.441       .  S
C439        H444   1.087       .  S
C439        C440   1.360       .  D
C440        C653   1.443       .  S
C445        C446   1.536       .  S
C445        C451   1.532       .  S
C445        C449   1.536   1_455  S
C445        C646   1.469   1_554  S
C446        H453   1.087       .  S
C446        C447   1.366       .  D
C447        C448   1.537       .  S
C447        C641   1.441       .  S
C448        C452   1.535       .  S
C448        C450   1.537   1_455  S
C448        H454   1.112       .  S
C449        H455   1.087       .  S
C449        C450   1.366       .  D
C450        C643   1.441       .  S
C451        H456   1.087       .  S
C451        C452   1.360       .  D
C452        C652   1.443       .  S
C457        C458   1.536       .  S
C457        C463   1.532       .  S
C457        C461   1.537       .  S
C457        C639   1.470       .  S
C458        H465   1.087       .  S
C458        C459   1.367       .  D
C459        C460   1.537       .  S
C459        C658   1.442       .  S
C460        C464   1.536       .  S
C460        C462   1.537       .  S
C460        H466   1.112       .  S
C461        H467   1.087       .  S
C461        C462   1.367       .  D
C462        C667   1.442       .  S
C463        H468   1.087       .  S
C463        C464   1.360       .  D
C464        C637   1.444       .  S
C469        C470   1.536       .  S
C469        C475   1.532       .  S
C469        C473   1.537       .  S
C469        C640   1.470       .  S
C470        H477   1.087       .  S
C470        C471   1.367       .  D
C471        C472   1.537       .  S
C471        C631   1.441       .  S
C472        C476   1.536       .  S
C472        C474   1.537       .  S
C472        H478   1.112       .  S
C473        H479   1.087       .  S
C473        C474   1.367       .  D
C474        C633   1.442       .  S
C475        H480   1.087       .  S
C475        C476   1.360       .  D
C476        C635   1.444       .  S
C481        C482   1.536       .  S
C481        C487   1.532       .  S
C481        C485   1.536       .  S
C481        C629   1.470       .  S
C482        H489   1.087       .  S
C482        C483   1.366       .  D
C483        C484   1.537       .  S
C483        C664   1.441       .  S
C484        C488   1.536       .  S
C484        C486   1.537       .  S
C484        H490   1.112       .  S
C485        H491   1.087       .  S
C485        C486   1.367       .  D
C486        C662   1.442       .  S
C487        H492   1.087       .  S
C487        C488   1.360       .  D
C488        C638   1.444       .  S
C493        C494   1.536       .  S
C493        C499   1.532       .  S
C493        C497   1.536       .  S
C493        C630   1.470       .  S
C494        H501   1.087       .  S
C494        C495   1.367       .  D
C495        C496   1.537       .  S
C495        C627   1.441       .  S
C496        C500   1.536       .  S
C496        C498   1.537       .  S
C496        H502   1.112       .  S
C497        H503   1.087       .  S
C497        C498   1.367       .  D
C498        C625   1.441       .  S
C499        H504   1.087       .  S
C499        C500   1.360       .  D
C500        C636   1.444       .  S
In505       O507   2.239       .  S
In505       O508   2.255       .  S
In505       O516   2.250       .  S
In505       O510   2.240       .  S
In505       O512   2.247       .  S
In505       O513   2.249       .  S
In505       O514   2.226       .  S
In505       O517   2.243       .  S
C506        O512   1.262       .  A
C506        O514   1.259       .  A
C506        C623   1.430       .  S
O507        C515   1.258       .  A
O508        C515   1.262       .  A
C509        O516   1.260       .  A
C509        O510   1.259       .  A
C509        C690   1.435       .  S
C511        O513   1.261       .  A
C511        O517   1.259       .  A
C511        C634   1.436       .  S
C515        C622   1.436       .  S
In518       O520   2.243       .  S
In518       O521   2.248       .  S
In518       O529   2.250       .  S
In518       O523   2.241       .  S
In518       O525   2.247       .  S
In518       O526   2.255       .  S
In518       O527   2.226       .  S
In518       O530   2.239       .  S
C519        O525   1.262       .  A
C519        O527   1.259       .  A
C519        C624   1.430       .  S
O520        C528   1.259       .  A
O521        C528   1.261       .  A
C522        O529   1.260       .  A
C522        O523   1.259       .  A
C522        C704   1.435       .  S
C524        O526   1.262       .  A
C524        O530   1.258       .  A
C524        C620   1.436       .  S
C528        C628   1.435       .  S
In531       O533   2.242       .  S
In531       O534   2.248       .  S
In531       O542   2.250       .  S
In531       O536   2.241       .  S
In531       O538   2.246       .  S
In531       O539   2.255       .  S
In531       O540   2.226       .  S
In531       O543   2.238       .  S
C532        O538   1.262       .  A
C532        O540   1.259       .  A
C532        C618   1.430       .  S
O533        C541   1.259       .  A
O534        C541   1.261       .  A
C535        O542   1.260       .  A
C535        O536   1.259       .  A
C535        C696   1.435       .  S
C537        O539   1.262       .  A
C537        O543   1.258       .  A
C537        C619   1.436       .  S
C541        C649   1.435       .  S
In544       O546   2.238       .  S
In544       O547   2.254       .  S
In544       O555   2.249       .  S
In544       O549   2.241       .  S
In544       O551   2.247       .  S
In544       O552   2.247       .  S
In544       O553   2.225       .  S
In544       O556   2.242       .  S
C545        O551   1.262       .  A
C545        O553   1.259       .  A
C545        C617   1.430       .  S
O546        C554   1.258       .  A
O547        C554   1.262       .  A
C548        O555   1.260       .  A
C548        O549   1.259       .  A
C548        C716   1.434       .  S
C550        O552   1.261       .  A
C550        O556   1.259       .  A
C550        C644   1.435       .  S
C554        C615   1.435       .  S
In557       O559   2.238       .  S
In557       O560   2.255       .  S
In557       O568   2.249       .  S
In557       O562   2.240       .  S
In557       O564   2.245       .  S
In557       O565   2.249       .  S
In557       O566   2.225       .  S
In557       O569   2.243       .  S
C558        O564   1.262       .  A
C558        O566   1.259       .  A
C558        C614   1.429       .  S
O559        C567   1.258       .  A
O560        C567   1.262       .  A
C561        O568   1.260       .  A
C561        O562   1.259       .  A
C561        C698   1.434       .  S
C563        O565   1.261       .  A
C563        O569   1.259       .  A
C563        C647   1.436       .  S
C567        C621   1.436       .  S
In570       O572   2.243       .  S
In570       O573   2.247       .  S
In570       O581   2.249       .  S
In570       O575   2.240       .  S
In570       O577   2.246       .  S
In570       O578   2.254       .  S
In570       O579   2.225       .  S
In570       O582   2.238       .  S
C571        O577   1.262       .  A
C571        O579   1.259       .  A
C571        C613   1.429       .  S
O572        C580   1.259       .  A
O573        C580   1.261       .  A
C574        O581   1.260       .  A
C574        O575   1.259       .  A
C574        C712   1.435       .  S
C576        O578   1.262       .  A
C576        O582   1.258       .  A
C576        C611   1.436       .  S
C580        C642   1.435       .  S
In583       O585   2.238       .  S
In583       O586   2.254       .  S
In583       O594   2.249       .  S
In583       O588   2.241       .  S
In583       O590   2.247       .  S
In583       O591   2.248       .  S
In583       O592   2.225       .  S
In583       O595   2.243       .  S
C584        O590   1.262       .  A
C584        O592   1.259       .  A
C584        C609   1.430       .  S
O585        C593   1.258       .  A
O586        C593   1.262       .  A
C587        O594   1.260       .  A
C587        O588   1.259       .  A
C587        C707   1.435       .  S
C589        O591   1.261       .  A
C589        O595   1.259       .  A
C589        C626   1.435       .  S
C593        C616   1.435       .  S
In596       O598   2.243       .  S
In596       O599   2.248       .  S
In596       O607   2.250       .  S
In596       O601   2.241       .  S
In596       O603   2.246       .  S
In596       O604   2.255       .  S
In596       O605   2.226       .  S
In596       O608   2.238       .  S
C597        O603   1.262       .  A
C597        O605   1.259       .  A
C597        C610   1.430       .  S
O598        C606   1.259       .  A
O599        C606   1.261       .  A
C600        O607   1.260       .  A
C600        O601   1.259       .  A
C600        C692   1.435       .  S
C602        O604   1.262       .  A
C602        O608   1.258       .  A
C602        C612   1.436       .  S
C606        C632   1.435       .  S
C609        C610   1.202   1_655  T
C611        C612   1.206       .  T
C613        C614   1.202       .  T
C615        C616   1.206       .  T
C617        C618   1.202       .  T
C619        C620   1.206       .  T
C621        C622   1.206       .  T
C623        C624   1.203   1_455  T
C625        C626   1.206       .  T
C627        C628   1.206       .  T
C629        C630   1.208       .  T
C631        C632   1.206       .  T
C633        C634   1.206       .  T
C635        C636   1.207   1_455  T
C637        C638   1.207   1_455  T
C639        C640   1.208       .  T
C641        C642   1.206       .  T
C643        C644   1.206       .  T
C645        C646   1.207       .  T
C647        C648   1.206       .  T
C649        C650   1.206       .  T
C651        C652   1.207       .  T
C653        C654   1.207       .  T
C655        C656   1.207       .  T
C657        C658   1.206       .  T
C659        C660   1.202   1_455  T
C661        C662   1.206       .  T
C663        C664   1.206       .  T
C665        C666   1.203   1_455  T
C667        C668   1.206       .  T
C669        C670   1.206       .  T
C671        C672   1.206       .  T
C673        C674   1.206       .  T
C675        C676   1.202       .  T
C677        C678   1.206       .  T
C679        C680   1.206       .  T
C681        C682   1.206       .  T
C683        C684   1.206       .  T
C685        C686   1.202       .  T
C687        C688   1.206       .  T
C689        C690   1.205       .  T
C691        C692   1.205       .  T
C693        C694   1.203       .  T
C695        C696   1.205       .  T
C697        C698   1.205       .  T
C699        C700   1.206       .  T
C701        C702   1.203       .  T
C703        C704   1.206       .  T
C705        C706   1.206       .  T
C707        C708   1.205       .  T
C709        C710   1.202       .  T
C711        C712   1.205       .  T
C713        C714   1.206       .  T
C715        C716   1.205       .  T
C717        C718   1.206       .  T
C719        C720   1.202       .  T
C721        C722   1.206       .  T
C723        C724   1.206       .  T
C725        C726   1.207       .  T
C727        C728   1.205       .  T
C729        C730   1.206       .  T
C731        C732   1.207       .  T
C733        C734   1.207       .  T
C735        C736   1.207       .  T
C737        C738   1.206       .  T
C739        C740   1.206       .  T
C741        C742   1.208       .  T
C743        C744   1.206       .  T
C745        C746   1.206       .  T
C747        C748   1.207       .  T
C749        C750   1.207       .  T
C751        C752   1.208       .  T
C753        C754   1.205       .  T
C755        C756   1.206       .  T
C757        C758   1.205       .  T
C759        C760   1.203       .  T
C761        C762   1.206       .  T
C763        C764   1.205       .  T
C765        C766   1.206       .  T
C767        C768   1.206       .  T
C769        C770   1.205       .  T
C771        C772   1.202       .  T
C773        C774   1.206       .  T
C775        C776   1.205       .  T
C777        C778   1.205       .  T
C779        C780   1.205       .  T
C781        C782   1.206       .  T
C783        C784   1.203       .  T
C785        C786   1.206       .  T
C787        C788   1.205       .  T
C789        C790   1.206       .  T
C791        C792   1.206       .  T
C793        C794   1.205       .  T
C795        C796   1.206       .  T
C797        C798   1.202       .  T
C799        C800   1.206       .  T
