geometry optimzed in LAMMPS
_audit_creation_date              2020-11-30 
_audit_creation_method            'lammps2cif' 
_symmetry_space_group_name_H-M    'P1' 
_symmetry_Int_Tables_number       1 
_symmetry_cell_setting            triclinic 
loop_ 
_symmetry_equiv_pos_as_xyz 
  x,y,z 
_cell_length_a                    25.91559311867246 
_cell_length_b                    25.701579915082185 
_cell_length_c                    52.07889910595402 
_cell_angle_alpha                 90.3939866050602 
_cell_angle_beta                  89.4721903716053 
_cell_angle_gamma                 121.41943708942993 
loop_ 
_atom_site_label 
_atom_site_type_symbol 
_atom_site_fract_x 
_atom_site_fract_y 
_atom_site_fract_z 
_atom_site_charge 
In1        In  0.01814136  0.75167721  0.33034545     1.36870
C2          C  0.01782972  0.73843816  0.28037615     0.76990
O3          O  0.91693186  0.68908222  0.33030998    -0.61460
O4          O  0.95636689  0.78468456  0.33717306    -0.52370
C5          C  0.03310275  0.71555492  0.37484444     0.69650
O6          O  0.03498018  0.68970324  0.35426581    -0.47230
C7          C  0.12529662  0.85134415  0.33256245     0.74360
O8          O  0.01482099  0.69743110  0.29491347    -0.59090
O9          O  0.07700048  0.85135187  0.33600109    -0.49180
O10         O  0.02025688  0.78314297  0.29162855    -0.55520
C11         C  0.90896163  0.73301424  0.33446795     0.84540
O12         O  0.01703139  0.75364851  0.37220210    -0.57410
O13         O  0.11890685  0.80010021  0.32778303    -0.60710
In14       In  0.02465464  0.75089718  0.20218294     1.36870
C15         C  0.01911503  0.73813742  0.25236412     0.76990
O16         O  0.12507844  0.80462954  0.20781531    -0.61460
O17         O  0.07985199  0.85100880  0.19731512    -0.52370
C18         C  0.04821084  0.71099220  0.15998126     0.69650
O19         O  0.03452648  0.68004709  0.18047364    -0.47230
C20         C  0.91598377  0.73292337  0.19577288     0.74360
O21         O  0.02144197  0.69901250  0.23821239    -0.59090
O22         O  0.96397388  0.78352895  0.19226115    -0.49180
O23         O  0.01908988  0.78072493  0.24067177    -0.55520
C24         C  0.12902776  0.85453370  0.20256260     0.84540
O25         O  0.04566258  0.75843639  0.16112455    -0.57410
O26         O  0.92297464  0.68897783  0.20080485    -0.60710
In27       In  0.28670790  0.02029321  0.20358017     1.36870
C28         C  0.30233780  0.01948220  0.25363492     0.76990
O29         O  0.34295687  0.12290630  0.20517925    -0.61460
O30         O  0.24744087  0.07668831  0.19899006    -0.52370
C31         C  0.32424199  0.01204631  0.15731948     0.69650
O32         O  0.35020560  0.00869317  0.17726174    -0.47230
C33         C  0.18594947  0.91284686  0.20265053     0.74360
O34         O  0.34348205  0.02512536  0.23834640    -0.59090
O35         O  0.18745239  0.96207485  0.19916440    -0.49180
O36         O  0.25709291  0.01559352  0.24303856    -0.55520
C37         C  0.29656734  0.12652611  0.20191841     0.84540
O38         O  0.28453677  0.02523067  0.16138034    -0.57410
O39         O  0.23663450  0.91804715  0.20613014    -0.60710
In40       In  0.28786538  0.01161818  0.33229875     1.36870
C41         C  0.30223715  0.01664982  0.28176287     0.76990
O42         O  0.23308218  0.90966800  0.32860808    -0.61460
O43         O  0.18890154  0.95765972  0.33855154    -0.52370
C44         C  0.33198428  0.99954780  0.37617390     0.69650
O45         O  0.35114360  0.99253360  0.35469828    -0.47230
C46         C  0.29684117  0.11750164  0.33636803     0.74360
O47         O  0.34447830  0.02245771  0.29600567    -0.59090
O48         O  0.24874974  0.06740730  0.34048894    -0.49180
O49         O  0.25592604  0.00794617  0.29353377    -0.55520
C50         C  0.18407759  0.90737596  0.33348339     0.84540
O51         O  0.29434200  0.01619660  0.37453339    -0.57410
O52         O  0.34309492  0.11449436  0.33130761    -0.60710
In53       In  0.28509401  0.26901293  0.33527041     1.36870
C54         C  0.29982517  0.28723324  0.28485940     0.76990
O55         O  0.34185632  0.22608270  0.33289478    -0.61460
O56         O  0.24635778  0.17107602  0.33952056    -0.52370
C57         C  0.32309694  0.31223299  0.38206276     0.69650
O58         O  0.34844498  0.34496725  0.36231853    -0.47230
C59         C  0.18539698  0.27186879  0.33860655     0.74360
O60         O  0.34112882  0.32446750  0.29997307    -0.59090
O61         O  0.18621267  0.22349785  0.34074090    -0.49180
O62         O  0.25450085  0.24371493  0.29578172    -0.55520
C63         C  0.29583426  0.17345663  0.33647432     0.84540
O64         O  0.28295600  0.25811175  0.37716662    -0.57410
O65         O  0.23630618  0.31998350  0.33526793    -0.60710
In66       In  0.28689914  0.27890375  0.20589810     1.36870
C67         C  0.30003987  0.28981771  0.25658639     0.76990
O68         O  0.23628969  0.32809421  0.20848178    -0.61460
O69         O  0.18853525  0.23236981  0.20063637    -0.52370
C70         C  0.32402692  0.32613246  0.15954062     0.69650
O71         O  0.35242073  0.35648459  0.17936841    -0.47230
C72         C  0.29666567  0.18298662  0.20237092     0.74360
O73         O  0.34168429  0.32948925  0.24212463    -0.59090
O74         O  0.24754139  0.18135813  0.20017110    -0.49180
O75         O  0.25476370  0.24849379  0.24492863    -0.55520
C76         C  0.18619828  0.27961113  0.20417995     0.84540
O77         O  0.28101766  0.27290151  0.16399354    -0.57410
O78         O  0.34322154  0.23528928  0.20572626    -0.60710
In79       In  0.02124368  0.26368856  0.20741301     1.36870
C80         C  0.01984154  0.27267319  0.25754629     0.76990
O81         O  0.91965708  0.21224309  0.20915065    -0.61460
O82         O  0.96518249  0.16612537  0.19801295    -0.52370
C83         C  0.02802035  0.32334548  0.16580789     0.69650
O84         O  0.03338759  0.34703899  0.18778592    -0.47230
C85         C  0.12844893  0.27624004  0.20415491     0.74360
O86         O  0.01306727  0.30898487  0.24365622    -0.59090
O87         O  0.07997170  0.22658882  0.19980830    -0.49180
O88         O  0.02624930  0.23368863  0.24565390    -0.55520
C89         C  0.91579081  0.16274539  0.20281816     0.84540
O90         O  0.01640958  0.26937770  0.16578167    -0.57410
O91         O  0.12267513  0.32097629  0.20935408    -0.60710
In92       In  0.02335521  0.26256392  0.33551819     1.36870
C93         C  0.02094512  0.27282922  0.28546838     0.76990
O94         O  0.12494840  0.31655258  0.33391532    -0.61460
O95         O  0.07901616  0.22188057  0.34289435    -0.52370
C96         C  0.02997518  0.32423180  0.37697140     0.69650
O97         O  0.03987668  0.34822739  0.35493969    -0.47230
C98         C  0.91784020  0.16167637  0.33933516     0.74360
O99         O  0.01366649  0.30818312  0.30004826    -0.59090
O100        O  0.96687631  0.16488367  0.34434230    -0.49180
O101        O  0.02959303  0.23491202  0.29664446    -0.55520
C102        C  0.12862465  0.27059733  0.33884043     0.84540
O103        O  0.01359926  0.26879463  0.37715530    -0.57410
O104        O  0.92201833  0.21137660  0.33344668    -0.60710
In105      In  0.76406782  0.99500979  0.33545841     1.36870
C106        C  0.75316869  0.99693117  0.28529362     0.76990
O107        O  0.81084246  0.09691711  0.33390703    -0.61460
O108        O  0.86101649  0.05465992  0.34306155    -0.52370
C109        C  0.70948071  0.98662668  0.37926135     0.69650
O110        O  0.68292121  0.97934279  0.35803476    -0.47230
C111        C  0.75346035  0.88768186  0.33726463     0.74360
O112        O  0.71607681  0.00105960  0.29998056    -0.59090
O113        O  0.80254653  0.93670768  0.34170984    -0.49180
O114        O  0.79355667  0.99257897  0.29646839    -0.55520
C115        C  0.86140692  0.10321484  0.33910003     0.84540
O116        O  0.76412270  0.00229152  0.37755546    -0.57410
O117        O  0.70880438  0.89317002  0.33265682    -0.60710
In118      In  0.76247236  0.99501455  0.20683707     1.36870
C119        C  0.75266523  0.99666445  0.25722779     0.76990
O120        O  0.71030519  0.89282006  0.20980690    -0.61460
O121        O  0.80386620  0.93974287  0.19952714    -0.52370
C122        C  0.70306623  0.98079415  0.16428969     0.69650
O123        O  0.68051068  0.98176345  0.18585972    -0.47230
C124        C  0.85932548  0.10415975  0.20254032     0.74360
O125        O  0.71452453  0.99954366  0.24315164    -0.59090
O126        O  0.85923751  0.05587987  0.19816812    -0.49180
O127        O  0.79312203  0.99298195  0.24538339    -0.55520
C128        C  0.75588102  0.88952208  0.20386538     0.84540
O129        O  0.75614562  0.99137486  0.16477785    -0.57410
O130        O  0.80847747  0.09727376  0.20794241    -0.60710
In131      In  0.75846720  0.73203610  0.20138101     1.36870
C132        C  0.74298089  0.71488060  0.25199439     0.76990
O133        O  0.80760600  0.68055183  0.20054816    -0.61460
O134        O  0.85567129  0.77625968  0.19341124    -0.52370
C135        C  0.70606716  0.69534716  0.15586678     0.69650
O136        O  0.67993559  0.66418652  0.17583445    -0.47230
C137        C  0.75478131  0.83238670  0.20249552     0.74360
O138        O  0.70723876  0.67276180  0.23674779    -0.59090
O139        O  0.80254244  0.83201217  0.19833666    -0.49180
O140        O  0.78440987  0.76189458  0.24113614    -0.55520
C141        C  0.85779302  0.72884147  0.19604973     0.84540
O142        O  0.75841092  0.74021631  0.15948524    -0.57410
O143        O  0.70747743  0.78064037  0.20575419    -0.60710
In144      In  0.74893807  0.72666531  0.33137792     1.36870
C145        C  0.73998194  0.71416789  0.28030922     0.76990
O146        O  0.70301519  0.78035277  0.32971676    -0.61460
O147        O  0.79536033  0.82528143  0.34094935    -0.52370
C148        C  0.68446108  0.67627999  0.37380684     0.69650
O149        O  0.65974595  0.66602291  0.35200116    -0.47230
C150        C  0.84995779  0.72710028  0.33495743     0.74360
O151        O  0.70642591  0.66885893  0.29462011    -0.59090
O152        O  0.84595724  0.77309691  0.33940056    -0.49180
O153        O  0.77448808  0.76264994  0.29222538    -0.55520
C154        C  0.75003724  0.82939719  0.33631042     0.84540
O155        O  0.74122429  0.70482424  0.37324871    -0.57410
O156        O  0.80070893  0.67827145  0.32986374    -0.60710
C157        C  0.44926008  0.34167500  0.97364913    -0.03080
C158        C  0.68991418  0.57319346  0.97790585    -0.03080
C159        C  0.35230266  0.43323974  0.05720916    -0.03080
C160        C  0.59234118  0.67620428  0.05604925    -0.03080
C161        C  0.11857896  0.43873325  0.06555448    -0.03080
C162        C  0.12483938  0.67804797  0.05749228    -0.03080
C163        C  0.93354697  0.33932281  0.98059645    -0.03080
C164        C  0.92262422  0.57012546  0.97977721    -0.03080
C165        C  0.46057919  0.11121871  0.97524136    -0.03080
C166        C  0.68779063  0.10544174  0.98127372    -0.03080
C167        C  0.59167962  0.91016992  0.06120595    -0.03080
C168        C  0.36135724  0.92103930  0.05937802    -0.03080
C169        C  0.44971193  0.10846934  0.55910806    -0.03080
C170        C  0.67650254  0.10034810  0.56483495    -0.03080
C171        C  0.60164173  0.91287543  0.48216662    -0.03080
C172        C  0.36611923  0.91121231  0.47573426    -0.03080
C173        C  0.45349101  0.34229179  0.55752564    -0.03080
C174        C  0.69206442  0.57641891  0.55462245    -0.03080
C175        C  0.34715322  0.43237144  0.48041483    -0.03080
C176        C  0.58109889  0.66931557  0.47625411    -0.03080
C177        C  0.11643538  0.44420901  0.47777325    -0.03080
C178        C  0.11540986  0.68022442  0.47455213    -0.03080
C179        C  0.92102093  0.33885435  0.56028316    -0.03080
C180        C  0.92506945  0.57742151  0.55606174    -0.03080
In181      In  0.02281855  0.73723119  0.70428653     1.36870
C182        C  0.02452279  0.72780451  0.75488761     0.76990
O183        O  0.12481860  0.78839378  0.70486656    -0.61460
O184        O  0.07767727  0.83448844  0.69696738    -0.52370
C185        C  0.00876081  0.68327011  0.65930232     0.69650
O186        O  0.00150257  0.65429854  0.67999438    -0.47230
C187        C  0.91983925  0.73332649  0.70293622     0.74360
O188        O  0.03010353  0.69056978  0.74066234    -0.59090
O189        O  0.97002539  0.78105167  0.69860833    -0.49180
O190        O  0.01867144  0.76677085  0.74305452    -0.55520
C191        C  0.12745885  0.83818321  0.70042130     0.84540
O192        O  0.02909110  0.73921235  0.66203769    -0.57410
O193        O  0.92162313  0.68608443  0.70753651    -0.60710
In194      In  0.02075378  0.74457730  0.83332832     1.36870
C195        C  0.02433539  0.72977930  0.78307574     0.76990
O196        O  0.92032619  0.69548663  0.82936247    -0.61460
O197        O  0.96969168  0.79165495  0.83619667    -0.52370
C198        C  0.99741649  0.68652613  0.87760955     0.69650
O199        O  0.00234624  0.66308213  0.85691227    -0.47230
C200        C  0.13007228  0.84022705  0.83887218     0.74360
O201        O  0.02536988  0.69192364  0.79827656    -0.59090
O202        O  0.08252819  0.84103611  0.84281191    -0.49180
O203        O  0.02208111  0.77250235  0.79382931    -0.55520
C204        C  0.91913403  0.74360144  0.83268905     0.84540
O205        O  0.00853805  0.74007339  0.87528910    -0.57410
O206        O  0.12241544  0.78868947  0.83336684    -0.60710
In207      In  0.27536129  0.00836876  0.70467389     1.36870
C208        C  0.28983728  0.00379481  0.75419741     0.76990
O209        O  0.32428631  0.10957500  0.70861029    -0.61460
O210        O  0.22989966  0.06043709  0.70000690    -0.52370
C211        C  0.32853309  0.03054489  0.65990382     0.69650
O212        O  0.35780750  0.03786921  0.68037561    -0.47230
C213        C  0.18250752  0.89774581  0.70060791     0.74360
O214        O  0.32604127  0.00051320  0.73862048    -0.59090
O215        O  0.17925869  0.94482950  0.69870224    -0.49180
O216        O  0.24909812  0.00944754  0.74413240    -0.55520
C217        C  0.27759588  0.11130972  0.70374617     0.84540
O218        O  0.27228473  0.00563764  0.66261303    -0.57410
O219        O  0.23494545  0.90671239  0.70371905    -0.60710
In220      In  0.28598942  0.00500932  0.83258538     1.36870
C221        C  0.29175143  0.00221427  0.78214392     0.76990
O222        O  0.23722485  0.90210879  0.83096229    -0.61460
O223        O  0.19163861  0.94610853  0.84482773    -0.52370
C224        C  0.35273714  0.02043445  0.87316190     0.69650
O225        O  0.37503644  0.02874195  0.85076291    -0.47230
C226        C  0.28421391  0.10633328  0.83431043     0.74360
O227        O  0.33036986  0.99834845  0.79544676    -0.59090
O228        O  0.23905792  0.05509126  0.83993988    -0.49180
O229        O  0.25220990  0.00579372  0.79473831    -0.55520
C230        C  0.18841941  0.89701898  0.83880493     0.84540
O231        O  0.29747105  0.00254784  0.87405572    -0.57410
O232        O  0.33202876  0.10671555  0.82901485    -0.60710
In233      In  0.27468102  0.26785337  0.70218473     1.36870
C234        C  0.28355465  0.27724968  0.75253877     0.76990
O235        O  0.23058316  0.32385152  0.70361555    -0.61460
O236        O  0.17901392  0.22925926  0.69370744    -0.52370
C237        C  0.33094075  0.30709817  0.65766129     0.69650
O238        O  0.35450671  0.33771188  0.67801518    -0.47230
C239        C  0.27794733  0.16784666  0.70264917     0.74360
O240        O  0.32443282  0.31942192  0.73867147    -0.59090
O241        O  0.23053837  0.16812581  0.69775165    -0.49180
O242        O  0.24051744  0.23424060  0.74048628    -0.55520
C243        C  0.17943156  0.27752793  0.69850377     0.84540
O244        O  0.27885715  0.26092644  0.66046254    -0.57410
O245        O  0.32479787  0.21938171  0.70675859    -0.60710
In246      In  0.26871976  0.25582924  0.83055229     1.36870
C247        C  0.28263529  0.27380719  0.78058012     0.76990
O248        O  0.32443298  0.21262967  0.82801665    -0.61460
O249        O  0.22990803  0.15710495  0.83639827    -0.52370
C250        C  0.32010510  0.29798455  0.87517304     0.69650
O251        O  0.34639720  0.32402203  0.85429508    -0.47230
C252        C  0.17387171  0.26605431  0.83491474     0.74360
O253        O  0.32048900  0.31443003  0.79573704    -0.59090
O254        O  0.17120903  0.21578966  0.83670115    -0.49180
O255        O  0.24074636  0.22655550  0.79121862    -0.55520
C256        C  0.27976661  0.16029064  0.83306351     0.84540
O257        O  0.26684188  0.25387406  0.87270205    -0.57410
O258        O  0.22603335  0.31242260  0.83145347    -0.60710
In259      In  0.01655223  0.26393395  0.70512161     1.36870
C260        C  0.01905187  0.27865031  0.75557945     0.76990
O261        O  0.91529290  0.20937337  0.70714266    -0.61460
O262        O  0.96282963  0.16355426  0.69970626    -0.52370
C263        C  0.00080304  0.30311130  0.66105747     0.69650
O264        O  0.98958116  0.32045629  0.68212873    -0.47230
C265        C  0.12276072  0.27627221  0.69968371     0.74360
O266        O  0.02802243  0.32199629  0.74094100    -0.59090
O267        O  0.07357863  0.22670862  0.69619563    -0.49180
O268        O  0.00973783  0.23127690  0.74420919    -0.55520
C269        C  0.91268472  0.15955071  0.70318420     0.84540
O270        O  0.02703267  0.27389704  0.66321315    -0.57410
O271        O  0.11835509  0.32178802  0.70544026    -0.60710
In272      In  0.01700930  0.26573930  0.83435423     1.36870
C273        C  0.01858488  0.27882061  0.78377137     0.76990
O274        O  0.11825216  0.31645559  0.83168322    -0.61460
O275        O  0.06864533  0.22098232  0.84011756    -0.52370
C276        C  0.01526365  0.31951925  0.87767572     0.69650
O277        O  0.00127893  0.33235854  0.85638180    -0.47230
C278        C  0.91013429  0.16525479  0.83876361     0.74360
O279        O  0.02971367  0.32318028  0.79837505    -0.59090
O280        O  0.95877856  0.16756473  0.84367180    -0.49180
O281        O  0.00666896  0.23091219  0.79520811    -0.55520
C282        C  0.11920200  0.26851871  0.83588101     0.84540
O283        O  0.03363240  0.28299767  0.87615511    -0.57410
O284        O  0.91558361  0.21533101  0.83264767    -0.60710
In285      In  0.75587128  0.99312922  0.70585772     1.36870
C286        C  0.74062331  0.99349440  0.75632719     0.76990
O287        O  0.70359353  0.89006163  0.70571731    -0.61460
O288        O  0.79864139  0.94003513  0.69821762    -0.52370
C289        C  0.71344023  0.00627290  0.66209904     0.69650
O290        O  0.69071806  0.00917105  0.68332782    -0.47230
C291        C  0.85620364  0.10087117  0.70346688     0.74360
O292        O  0.69735099  0.98176789  0.74142602    -0.59090
O293        O  0.85512234  0.05173960  0.70005847    -0.49180
O294        O  0.78812813  0.00333162  0.74524408    -0.55520
C295        C  0.75092468  0.88884450  0.70090923     0.84540
O296        O  0.75133918  0.98999341  0.66367740    -0.57410
O297        O  0.80549660  0.09526676  0.70770702    -0.60710
In298      In  0.75175454  0.00062379  0.83516496     1.36870
C299        C  0.74007651  0.99641399  0.78449709     0.76990
O300        O  0.80334163  0.10281011  0.83235781    -0.61460
O301        O  0.84945213  0.05819062  0.84382373    -0.52370
C302        C  0.70251337  0.01087395  0.87836652     0.69650
O303        O  0.68670772  0.02019612  0.85673152    -0.47230
C304        C  0.74714269  0.89615196  0.83814399     0.74360
O305        O  0.69537585  0.98486006  0.79879095    -0.59090
O306        O  0.79415484  0.94706087  0.84247238    -0.49180
O307        O  0.78787217  0.01093420  0.79625267    -0.55520
C308        C  0.85255260  0.10759496  0.83872334     0.84540
O309        O  0.73865013  0.99221324  0.87707367    -0.57410
O310        O  0.70002509  0.89762697  0.83359508    -0.60710
In311      In  0.76660149  0.73969917  0.70285665     1.36870
C312        C  0.75135136  0.73059529  0.75313112     0.76990
O313        O  0.81313235  0.68770887  0.70748682    -0.61460
O314        O  0.86514999  0.78286446  0.69842185    -0.52370
C315        C  0.73527347  0.68797442  0.65721437     0.69650
O316        O  0.70837518  0.65831512  0.67742506    -0.47230
C317        C  0.75326669  0.83351047  0.69978322     0.74360
O318        O  0.70941754  0.69156005  0.73868954    -0.59090
O319        O  0.80333786  0.83703672  0.69671169    -0.49180
O320        O  0.79804037  0.77080511  0.74163115    -0.55520
C321        C  0.86441738  0.73425677  0.70285691     0.84540
O322        O  0.77241071  0.74393481  0.66063081    -0.57410
O323        O  0.70778431  0.78030711  0.70297005    -0.60710
In324      In  0.76395571  0.74723321  0.83160692     1.36870
C325        C  0.75042123  0.73294025  0.78128057     0.76990
O326        O  0.70527879  0.78835582  0.83229718    -0.61460
O327        O  0.79993761  0.84426192  0.83970292    -0.52370
C328        C  0.72572598  0.68994248  0.87603337     0.69650
O329        O  0.70137786  0.66378279  0.85498887    -0.47230
C330        C  0.86350886  0.74431631  0.83237983     0.74360
O331        O  0.70838029  0.69525806  0.79608150    -0.59090
O332        O  0.86333729  0.79291074  0.83572433    -0.49180
O333        O  0.79560208  0.77581436  0.79243346    -0.55520
C334        C  0.75005298  0.84101631  0.83705967     0.84540
O335        O  0.76536011  0.74561962  0.87388359    -0.57410
O336        O  0.81252296  0.69687413  0.82862047    -0.60710
C337        C  0.98794973  0.65468860  0.63389302    -0.06720
C338        C  0.02152366  0.63687494  0.61918386    -0.17850
C339        C  0.00446352  0.61492373  0.59383452     0.10480
C340        C  0.95120323  0.60930925  0.58279174    -0.06640
C341        C  0.91877493  0.62833771  0.59844089    -0.17880
C342        C  0.93691272  0.65132008  0.62309176     0.10510
S343        S  0.05214814  0.59525850  0.57602853    -0.32840
S344        S  0.89077016  0.67324876  0.64052518    -0.32850
H345        H  0.93745095  0.73459523  0.64284172     0.28520
H346        H  0.09681427  0.61189310  0.59479173     0.28510
H347        H  0.06178874  0.64133589  0.62747124     0.19110
H348        H  0.87708301  0.62396821  0.59241245     0.19110
C349        C  0.94474664  0.33311055  0.58723198    -0.06720
C350        C  0.93536544  0.27544988  0.59398878    -0.17850
C351        C  0.95813107  0.26656183  0.61667970     0.10480
C352        C  0.98165570  0.31237239  0.63578046    -0.06640
C353        C  0.99107849  0.36928573  0.62979397    -0.17880
C354        C  0.98020522  0.38185802  0.60501882     0.10510
S355        S  0.96509620  0.20047382  0.61792227    -0.32840
S356        S  0.02466611  0.46113872  0.59706587    -0.32850
H357        H  0.02167898  0.44877794  0.57111264     0.28520
H358        H  0.94463268  0.18542568  0.64341511     0.28510
H359        H  0.91603428  0.23844939  0.58020380     0.19110
H360        H  0.01440575  0.40624054  0.64349078     0.19110
C361        C  0.90776439  0.39343907  0.56006229    -0.06720
C362        C  0.89671336  0.41867939  0.58221432    -0.17850
C363        C  0.89537434  0.47330772  0.58122626     0.10480
C364        C  0.91509916  0.51033425  0.55824367    -0.06640
C365        C  0.92026403  0.47981984  0.53649564    -0.17880
C366        C  0.90006369  0.41764580  0.53728037     0.10510
S367        S  0.86432087  0.49007017  0.60909976    -0.32840
S368        S  0.83365300  0.36942486  0.51821221    -0.32850
H369        H  0.84811809  0.41221071  0.49851136     0.28520
H370        H  0.83800702  0.43255030  0.62086353     0.28510
H371        H  0.88950420  0.39656376  0.60054687     0.19110
H372        H  0.93153834  0.49935082  0.51779848     0.19110
C373        C  0.06402664  0.67138768  0.49436179    -0.06720
C374        C  0.00362191  0.62492515  0.48878467    -0.17850
C375        C  0.95674541  0.60071568  0.50684477     0.10480
C376        C  0.97051122  0.61488683  0.53335891    -0.06640
C377        C  0.02648192  0.67045931  0.53774686    -0.17880
C378        C  0.07010929  0.70143177  0.51819514     0.10510
S379        S  0.88164047  0.55643764  0.49300655    -0.32840
S380        S  0.12005095  0.78222258  0.52359456    -0.32850
H381        H  0.12960628  0.79923866  0.49777024     0.28520
H382        H  0.85297652  0.50967129  0.51094401     0.28510
H383        H  0.99066330  0.60784245  0.46958520     0.19110
H384        H  0.03518249  0.69332232  0.55607305     0.19110
C385        C  0.06305025  0.40562900  0.49771014    -0.06720
C386        C  0.07142979  0.37937949  0.51982761    -0.17850
C387        C  0.03017230  0.35848006  0.54096035     0.10480
C388        C  0.97121107  0.35180678  0.53861796    -0.06640
C389        C  0.95903421  0.36209748  0.51365761    -0.17880
C390        C  0.00358948  0.39644050  0.49542120     0.10510
S391        S  0.05834996  0.34076277  0.56904549    -0.32840
S392        S  0.97566571  0.42250353  0.46987442    -0.32850
H393        H  0.02975506  0.46230090  0.45778842     0.28520
H394        H  0.12011021  0.38361688  0.56480281     0.28510
H395        H  0.11267837  0.37933180  0.52188963     0.19110
H396        H  0.91331054  0.34467170  0.50826024     0.19110
C397        C  0.13076732  0.51359177  0.48057723    -0.06720
C398        C  0.15171866  0.55384198  0.45948261    -0.17850
C399        C  0.15709039  0.61084897  0.45852161     0.10480
C400        C  0.12610705  0.62561953  0.47695994    -0.06640
C401        C  0.10657843  0.58849463  0.49895545    -0.17880
C402        C  0.11207973  0.53699325  0.50170107     0.10510
S403        S  0.19344122  0.65479322  0.42993570    -0.32840
S404        S  0.09751981  0.50858743  0.53384127    -0.32850
H405        H  0.04374248  0.50930575  0.53592886     0.28520
H406        H  0.23110923  0.63124187  0.42547728     0.28510
H407        H  0.15569178  0.54006424  0.44137595     0.19110
H408        H  0.08922359  0.60116709  0.51518553     0.19110
C409        C  0.28221478  0.42547177  0.48142108    -0.06720
C410        C  0.26424757  0.44648873  0.50291982    -0.17850
C411        C  0.21706474  0.45929593  0.50204203     0.10480
C412        C  0.17341458  0.43539240  0.48189392    -0.06640
C413        C  0.18347672  0.39856990  0.46431136    -0.17880
C414        C  0.24053545  0.40604087  0.46061729     0.10510
S415        S  0.21752856  0.50617825  0.52757002    -0.32840
S416        S  0.25787408  0.40356454  0.42709648    -0.32850
H417        H  0.29725718  0.46673302  0.42547850     0.28520
H418        H  0.23145691  0.55467428  0.51089925     0.28510
H419        H  0.28791748  0.45532694  0.52049140     0.19110
H420        H  0.15061850  0.36997597  0.45017676     0.19110
C421        C  0.39336007  0.50409438  0.48048494    -0.06720
C422        C  0.41366308  0.53498489  0.45719519    -0.17850
C423        C  0.47055080  0.58922075  0.45435959     0.10480
C424        C  0.51065397  0.61620140  0.47627452    -0.06640
C425        C  0.48117761  0.59291501  0.49994323    -0.17880
C426        C  0.42332556  0.54105995  0.50257897     0.10510
S427        S  0.48552334  0.61584693  0.42152420    -0.32840
S428        S  0.39312994  0.53150576  0.53487082    -0.32850
H429        H  0.37306801  0.47019816  0.53886586     0.28520
H430        H  0.42527466  0.59412151  0.41447094     0.28510
H431        H  0.38824257  0.51282716  0.44019629     0.19110
H432        H  0.50211892  0.61551380  0.51729421     0.19110
C433        C  0.71213984  0.61257349  0.58068761    -0.06720
C434        C  0.71697735  0.58193798  0.60227581    -0.17850
C435        C  0.72295147  0.60433242  0.62728196     0.10480
C436        C  0.72750347  0.66073587  0.63136743    -0.06640
C437        C  0.73366737  0.69638458  0.60993306    -0.17880
C438        C  0.72907678  0.67459404  0.58470505     0.10510
S439        S  0.72356053  0.55795008  0.65295177    -0.32840
S440        S  0.75519386  0.73051542  0.55919087    -0.32850
H441        H  0.75238748  0.77619849  0.57300718     0.28520
H442        H  0.76877100  0.60694008  0.66718811     0.28510
H443        H  0.71081355  0.53730319  0.60001913     0.19110
H444        H  0.74404152  0.74255137  0.61303403     0.19110
C445        C  0.74772880  0.56849667  0.54882278    -0.06720
C446        C  0.80327554  0.62245407  0.54351014    -0.17850
C447        C  0.85956594  0.62685045  0.54441149     0.10480
C448        C  0.86363510  0.57489882  0.55080151    -0.06640
C449        C  0.80805319  0.51993335  0.55436134    -0.17880
C450        C  0.75174333  0.51571601  0.55448002     0.10510
S451        S  0.92324022  0.70219871  0.53796543    -0.32840
S452        S  0.69117071  0.44315343  0.56668225    -0.32850
H453        H  0.71062352  0.40661516  0.55504616     0.28520
H454        H  0.95056162  0.70969864  0.56187934     0.28510
H455        H  0.80314468  0.66360217  0.53963239     0.19110
H456        H  0.80779988  0.47904981  0.55886436     0.19110
C457        C  0.67402983  0.60853619  0.53313580    -0.06720
C458        C  0.63226975  0.62562643  0.54073547    -0.17850
C459        C  0.61161609  0.65457119  0.52442983     0.10480
C460        C  0.61916451  0.65521581  0.49707162    -0.06640
C461        C  0.66590907  0.64412965  0.48987005    -0.17880
C462        C  0.69165978  0.62000281  0.50653652     0.10510
S463        S  0.58975430  0.70154079  0.54152015    -0.32840
S464        S  0.74607488  0.60647607  0.49078521    -0.32850
H465        H  0.72458909  0.54772317  0.49998919     0.28520
H466        H  0.64042816  0.75609617  0.53274823     0.28510
H467        H  0.61932460  0.62144621  0.56073736     0.19110
H468        H  0.68557775  0.65616202  0.47095703     0.19110
C469        C  0.41713451  0.33106147  0.58343726    -0.06720
C470        C  0.41896791  0.38113499  0.59611986    -0.17850
C471        C  0.39364398  0.37615693  0.62057611     0.10480
C472        C  0.36157358  0.31886807  0.63246827    -0.06640
C473        C  0.35265900  0.26773527  0.61891045    -0.17880
C474        C  0.37696210  0.27213549  0.59441053     0.10510
S475        S  0.40245159  0.44410098  0.63512674    -0.32840
S476        S  0.34458476  0.20060569  0.57702488    -0.32850
H477        H  0.33348598  0.16309306  0.59849319     0.28520
H478        H  0.34562277  0.41488420  0.64739066     0.28510
H479        H  0.44253269  0.42560337  0.58741432     0.19110
H480        H  0.32385891  0.22300256  0.62726911     0.19110
C481        C  0.36550358  0.40368823  0.50229107    -0.06720
C482        C  0.42800642  0.42906462  0.50476174    -0.17850
C483        C  0.45100088  0.42034204  0.52658507     0.10480
C484        C  0.42057033  0.36210195  0.53812258    -0.06640
C485        C  0.35695906  0.32811443  0.53392518    -0.17880
C486        C  0.32848810  0.35083577  0.51775685     0.10510
S487        S  0.49595413  0.49057265  0.54417580    -0.32840
S488        S  0.24709183  0.31227888  0.51780118    -0.32850
H489        H  0.23649753  0.26907044  0.53678403     0.28520
H490        H  0.53025191  0.52403290  0.52273316     0.28510
H491        H  0.45968708  0.46760973  0.49361669     0.19110
H492        H  0.32961288  0.28577048  0.54413805     0.19110
C493        C  0.52221991  0.39556557  0.55880254    -0.06720
C494        C  0.54721547  0.42978305  0.58139163    -0.17850
C495        C  0.59350261  0.49134712  0.58017834     0.10480
C496        C  0.63187860  0.51337944  0.55788423    -0.06640
C497        C  0.61324323  0.47401389  0.53647179    -0.17880
C498        C  0.56031223  0.41632354  0.53648612     0.10510
S499        S  0.58574835  0.54066453  0.60299051    -0.32840
S500        S  0.54144629  0.37342394  0.50687422    -0.32850
H501        H  0.58476640  0.41962263  0.49079440     0.28520
H502        H  0.54630832  0.49570545  0.62050494     0.28510
H503        H  0.52538768  0.41205977  0.59962371     0.19110
H504        H  0.64052526  0.48888906  0.51936903     0.19110
C505        C  0.18104781  0.74000151  0.47697246    -0.06720
C506        C  0.21245529  0.77085484  0.45430609    -0.17850
C507        C  0.27400223  0.81470429  0.45365113     0.10480
C508        C  0.30416982  0.84721310  0.47660591    -0.06640
C509        C  0.27101874  0.82009031  0.49955747    -0.17880
C510        C  0.21686574  0.76195870  0.49958903     0.10510
S511        S  0.30825861  0.82276793  0.42222384    -0.32840
S512        S  0.19964474  0.71761568  0.52843274    -0.32850
H513        H  0.22036878  0.68133826  0.51768448     0.28520
H514        H  0.36634871  0.84109072  0.43066763     0.28510
H515        H  0.19174613  0.75635715  0.43572825     0.19110
H516        H  0.28740898  0.84148214  0.51784828     0.19110
C517        C  0.59831353  0.85005417  0.48646515    -0.06720
C518        C  0.64791567  0.84452330  0.47876076    -0.17850
C519        C  0.64658530  0.78906819  0.47994376     0.10480
C520        C  0.59038561  0.73336546  0.48357708    -0.06640
C521        C  0.54309277  0.73978252  0.49391130    -0.17880
C522        C  0.55048569  0.79746422  0.49879601     0.10510
S523        S  0.71645096  0.79231720  0.47319862    -0.32840
S524        S  0.50122480  0.80182919  0.52236923    -0.32850
H525        H  0.47234733  0.74102534  0.53080874     0.28520
H526        H  0.71922331  0.77257619  0.49798031     0.28510
H527        H  0.68888275  0.88391041  0.47160519     0.19110
H528        H  0.50090110  0.70035001  0.49962839     0.19110
C529        C  0.42383723  0.90442094  0.47469174    -0.06720
C530        C  0.48016536  0.95952776  0.47442089    -0.18090
C531        C  0.53552963  0.96260376  0.47278347     0.10480
C532        C  0.53901879  0.90907553  0.47556038    -0.06640
C533        C  0.48335450  0.85373348  0.47273840    -0.17880
C534        C  0.42663465  0.84973127  0.47355611     0.10510
S535        S  0.59816656  0.03706264  0.46461499    -0.32840
S536        S  0.36126949  0.77279315  0.47419248    -0.32850
H537        H  0.39068868  0.74249794  0.48195510     0.28520
H538        H  0.62734458  0.04765363  0.48804436     0.28510
H539        H  0.48102723  0.00213928  0.47396442     0.19110
H540        H  0.48351645  0.81234867  0.46984287     0.19110
C541        C  0.70262224  0.02643148  0.63736551    -0.06720
C542        C  0.64455999  0.00104788  0.62782059    -0.17850
C543        C  0.63462498  0.01727198  0.60339781     0.10480
C544        C  0.68281027  0.06963824  0.59011284    -0.06640
C545        C  0.74158875  0.08948372  0.59927002    -0.17880
C546        C  0.75138764  0.06778150  0.62196084     0.10510
S547        S  0.56026692  0.96748174  0.59058211    -0.32840
S548        S  0.82781479  0.09384633  0.63026297    -0.32850
H549        H  0.82245951  0.11484557  0.65452363     0.28520
H550        H  0.54149595  0.91813705  0.60742849     0.28510
H551        H  0.60732590  0.96568825  0.63890143     0.19110
H552        H  0.78160540  0.12145065  0.58861111     0.19110
C553        C  0.62580293  0.95018476  0.50814776    -0.06720
C554        C  0.58360358  0.95421509  0.52321274    -0.17850
C555        C  0.59937446  0.00840384  0.53505755     0.10480
C556        C  0.65969658  0.04921031  0.54370133    -0.06640
C557        C  0.70000402  0.02853143  0.53767461    -0.17880
C558        C  0.68415933  0.98009971  0.51974259     0.10510
S559        S  0.53897536  0.02116219  0.53231017    -0.32840
S560        S  0.73841346  0.95782990  0.51419886    -0.32850
H561        H  0.69938182  0.89903314  0.52410043     0.28520
H562        H  0.50420686  0.97546651  0.54997576     0.28510
H563        H  0.53588332  0.92152116  0.52105341     0.19110
H564        H  0.74397005  0.05019898  0.54664260     0.19110
C565        C  0.73813015  0.16394240  0.56058445    -0.06720
C566        C  0.77969673  0.17471621  0.54043790    -0.17850
C567        C  0.83896352  0.22776019  0.53924188     0.10480
C568        C  0.85650224  0.27756935  0.55683161    -0.06640
C569        C  0.81280438  0.26740873  0.57575023    -0.17880
C570        C  0.75692297  0.21279662  0.57850071     0.10510
S571        S  0.89174118  0.22331138  0.51776699    -0.32840
S572        S  0.71413387  0.20609172  0.60728787    -0.32850
H573        H  0.73821960  0.26880669  0.61132392     0.28520
H574        H  0.84962370  0.17413108  0.50259113     0.28510
H575        H  0.76742565  0.14017263  0.52601359     0.19110
H576        H  0.82472225  0.30098949  0.59056303     0.19110
C577        C  0.40913577  0.08937650  0.58438338    -0.06720
C578        C  0.43537426  0.12518519  0.60681310    -0.17850
C579        C  0.41005064  0.10818957  0.63120934     0.10480
C580        C  0.35666945  0.05203460  0.63457459    -0.06640
C581        C  0.32569638  0.01831715  0.61297691    -0.17880
C582        C  0.34888315  0.03667922  0.58802773     0.10510
S583        S  0.44926777  0.16010071  0.65733528    -0.32840
S584        S  0.29633242  0.98954431  0.56326138    -0.32850
H585        H  0.24252318  0.97026627  0.57718437     0.28520
H586        H  0.39643241  0.15425035  0.66795457     0.28510
H587        H  0.47957821  0.16383518  0.60674925     0.19110
H588        H  0.28249065  0.97649878  0.61575683     0.19110
C589        C  0.41696636  0.05520025  0.53809053    -0.06720
C590        C  0.41277039  0.99874948  0.54305016    -0.17850
C591        C  0.39231943  0.94989486  0.52517582     0.10480
C592        C  0.37655824  0.95639095  0.49950751    -0.06640
C593        C  0.37778294  0.01221960  0.49560097    -0.17880
C594        C  0.38691558  0.05407361  0.51521997     0.10510
S595        S  0.39442021  0.88513945  0.53772538    -0.32840
S596        S  0.33470096  0.08101253  0.51313811    -0.32850
H597        H  0.33977035  0.10017393  0.53879971     0.28520
H598        H  0.37584846  0.84666534  0.51670723     0.28510
H599        H  0.42598549  0.99207517  0.56165592     0.19110
H600        H  0.36747886  0.02404743  0.47749506     0.19110
C601        C  0.51223147  0.11320761  0.56389990    -0.06720
C602        C  0.55879934  0.14505622  0.54531882    -0.17850
C603        C  0.61503552  0.14862300  0.54636155     0.10480
C604        C  0.62638009  0.11796641  0.56641153    -0.06640
C605        C  0.58637769  0.09992916  0.58747763    -0.17880
C606        C  0.52779168  0.08957648  0.58548942     0.10510
S607        S  0.66495978  0.18581060  0.51943489    -0.32840
S608        S  0.47425728  0.03411300  0.60826883    -0.32850
H609        H  0.51484093  0.04779320  0.62859075     0.28520
H610        H  0.67234347  0.13704216  0.51322482     0.28510
H611        H  0.55005509  0.16471478  0.52882800     0.19110
H612        H  0.59798554  0.08761492  0.60517788     0.19110
C613        C  0.46713339  0.17709762  0.55241831    -0.06720
C614        C  0.44849085  0.19439569  0.53034219    -0.17850
C615        C  0.43975726  0.24486299  0.53031991     0.10480
C616        C  0.45951294  0.28544112  0.55187398    -0.06640
C617        C  0.49321463  0.27585193  0.57033238    -0.17880
C618        C  0.50388055  0.22818525  0.56878325     0.10510
S619        S  0.40231286  0.25372127  0.50310103    -0.32840
S620        S  0.57342509  0.24297049  0.58397389    -0.32850
H621        H  0.59830602  0.30528008  0.58939824     0.28520
H622        H  0.39940240  0.20706336  0.48775567     0.28510
H623        H  0.44286767  0.17016466  0.51275667     0.19110
H624        H  0.51389994  0.30789102  0.58600504     0.19110
C625        C  0.52735474  0.90519385  0.06200410    -0.06720
C626        C  0.50949692  0.92613130  0.08356536    -0.17850
C627        C  0.45504170  0.92552544  0.08505554     0.10480
C628        C  0.41903106  0.91418262  0.06239113    -0.06640
C629        C  0.43197413  0.88449914  0.04262475    -0.17880
C630        C  0.48042313  0.87448231  0.04327975     0.10510
S631        S  0.43076590  0.92236693  0.11817544    -0.32840
S632        S  0.46980927  0.81035276  0.02391596    -0.32850
H633        H  0.40624829  0.77809485  0.02283353     0.28520
H634        H  0.36884344  0.88148035  0.11447473     0.28510
H635        H  0.53351439  0.93576735  0.10132907     0.19110
H636        H  0.39754528  0.85808002  0.02882812     0.19110
C637        C  0.68662539  0.02663345  0.90351391    -0.06720
C638        C  0.68002030  0.07712014  0.90498998    -0.17850
C639        C  0.68468080  0.10702587  0.92842286     0.10480
C640        C  0.68825499  0.08158095  0.95250796    -0.06640
C641        C  0.69884283  0.03245008  0.94966862    -0.17880
C642        C  0.69446744  0.00329241  0.92644659     0.10510
S643        S  0.70225996  0.18345775  0.92316668    -0.32840
S644        S  0.69940139  0.93580176  0.92770294    -0.32850
H645        H  0.66002409  0.90650162  0.90697502     0.28520
H646        H  0.75193511  0.20857073  0.93956201     0.28510
H647        H  0.67883589  0.09819241  0.88720455     0.19110
H648        H  0.71107014  0.01524268  0.96589404     0.19110
C649        C  0.67211648  0.05053670  0.99984808    -0.06720
C650        C  0.70935306  0.05555865  0.02078271    -0.17850
C651        C  0.69006286  0.00861254  0.03944113     0.10480
C652        C  0.62999585  0.95645787  0.03869973    -0.06640
C653        C  0.60277345  0.94591793  0.01460742    -0.17880
C654        C  0.61955576  0.99083899  0.99614160     0.10510
S655        S  0.74761035  0.01429462  0.06048210    -0.32840
S656        S  0.56856497  0.96475658  0.96904558    -0.32850
H657        H  0.57619764  0.02017123  0.96143928     0.28520
H658        H  0.72277861  0.95093310  0.06181657     0.28510
H659        H  0.75379935  0.09582322  0.02289250     0.19110
H660        H  0.56619157  0.90194277  0.00989337     0.19110
C661        C  0.38759635  0.03450315  0.89703323    -0.06720
C662        C  0.44310299  0.08887107  0.89884555    -0.17850
C663        C  0.46906773  0.11525610  0.92277848     0.10480
C664        C  0.43994299  0.08542571  0.94651304    -0.06640
C665        C  0.38351204  0.02917065  0.94311901    -0.17880
C666        C  0.35939317  0.00284063  0.91950667     0.10510
S667        S  0.53665824  0.18831862  0.92018888    -0.32840
S668        S  0.28990533  0.92923186  0.91956862    -0.32850
H669        H  0.30053631  0.91036209  0.89569960     0.28520
H670        H  0.52233153  0.20694425  0.89735821     0.28510
H671        H  0.46441319  0.11311498  0.88123456     0.19110
H672        H  0.35372055  0.00486554  0.95893878     0.19110
C673        C  0.42018851  0.05578343  0.99450069    -0.06720
C674        C  0.39103743  0.06261552  0.01615043    -0.17850
C675        C  0.36510040  0.01858659  0.03597178     0.10480
C676        C  0.37028229  0.96510429  0.03572558    -0.06640
C677        C  0.38651473  0.95318728  0.01168208    -0.17880
C678        C  0.41645890  0.99775152  0.99281884     0.10510
S679        S  0.31941642  0.03250339  0.05805160    -0.32840
S680        S  0.44708246  0.97317293  0.96734058    -0.32850
H681        H  0.49349525  0.02991502  0.95872568     0.28520
H682        H  0.26910040  0.97304482  0.05680628     0.28510
H683        H  0.38845321  0.10305247  0.01817032     0.19110
H684        H  0.37671393  0.90843163  0.00701254     0.19110
C685        C  0.52985116  0.13193572  0.98200668    -0.06720
C686        C  0.53962275  0.10409819  0.00295262    -0.17850
C687        C  0.58821700  0.09541220  0.00428882     0.10480
C688        C  0.63610885  0.12154679  0.98550755    -0.06640
C689        C  0.63774413  0.17047187  0.97269166    -0.17880
C690        C  0.58701533  0.17792916  0.97133116     0.10510
S691        S  0.58655998  0.05935413  0.03355501    -0.32840
S692        S  0.61086155  0.25759694  0.97006268    -0.32850
H693        H  0.55597291  0.24919372  0.96264690     0.28520
H694        H  0.58425224  0.10326083  0.04902442     0.28510
H695        H  0.50830438  0.08741583  0.01890949     0.19110
H696        H  0.68166310  0.20882819  0.96784142     0.19110
C697        C  0.94484283  0.60137132  0.95272719    -0.06720
C698        C  0.94428517  0.56811328  0.93073039    -0.17850
C699        C  0.95704251  0.59296705  0.90609534     0.10480
C700        C  0.97922442  0.65539766  0.90286948    -0.06640
C701        C  0.98191877  0.68979866  0.92443809    -0.17880
C702        C  0.96310616  0.66369274  0.94883805     0.10510
S703        S  0.93758136  0.54073979  0.87958117    -0.32840
S704        S  0.96384719  0.71207681  0.97452047    -0.32850
H705        H  0.99974746  0.76844366  0.96212210     0.28520
H706        H  0.90511451  0.56261912  0.86668129     0.28510
H707        H  0.92888224  0.52029755  0.93188683     0.19110
H708        H  0.99719757  0.73750410  0.92204970     0.19110
C709        C  0.00446598  0.33917864  0.90283578    -0.06720
C710        C  0.95161128  0.34022270  0.90583933    -0.17850
C711        C  0.92845682  0.34083534  0.93010534     0.10480
C712        C  0.96003899  0.34206192  0.95305175    -0.06640
C713        C  0.01710113  0.34789701  0.94919777    -0.17880
C714        C  0.03886464  0.34566976  0.92473229     0.10510
S715        S  0.85882354  0.34117488  0.92873470    -0.32840
S716        S  0.11139090  0.35185152  0.92277792    -0.32850
H717        H  0.12655089  0.37897743  0.89832333     0.28520
H718        H  0.82922403  0.30394466  0.94969499     0.28510
H719        H  0.92545337  0.33616293  0.88898864     0.19110
H720        H  0.04673750  0.35601840  0.96496512     0.19110
C721        C  0.87386434  0.27355944  0.98423291    -0.06720
C722        C  0.83107701  0.26336833  0.00378005    -0.17850
C723        C  0.77131150  0.21139232  0.00408958     0.10480
C724        C  0.75394331  0.16253821  0.98628322    -0.06640
C725        C  0.80241497  0.16632507  0.97218885    -0.17880
C726        C  0.85890156  0.21993608  0.96937132     0.10510
S727        S  0.72151987  0.21086916  0.02843241    -0.32840
S728        S  0.90838044  0.21113486  0.94727280    -0.32850
H729        H  0.86317317  0.17249147  0.92975674     0.28520
H730        H  0.70992623  0.15573256  0.03896000     0.28510
H731        H  0.84283862  0.29798084  0.01831750     0.19110
H732        H  0.79644237  0.12685724  0.96219430     0.19110
C733        C  0.92614280  0.39724846  0.97965209    -0.06720
C734        C  0.87183106  0.39542476  0.98621157    -0.17850
C735        C  0.86843949  0.44852409  0.98896767     0.10480
C736        C  0.91788584  0.50632270  0.98066425    -0.06640
C737        C  0.97053089  0.50711866  0.97333124    -0.17880
C738        C  0.97656964  0.45674726  0.97361996     0.10510
S739        S  0.80112444  0.43865674  0.00452967    -0.32840
S740        S  0.05191988  0.47619228  0.96451126    -0.32850
H741        H  0.05816983  0.44592522  0.98496164     0.28520
H742        H  0.78221323  0.38208056  0.01610579     0.28510
H743        H  0.83070457  0.35287153  0.98940087     0.19110
H744        H  0.00910566  0.54878838  0.96645429     0.19110
C745        C  0.07556203  0.66405898  0.03592333    -0.06720
C746        C  0.01544442  0.64680062  0.04270145    -0.17850
C747        C  0.96620988  0.60905336  0.02689831     0.10480
C748        C  0.97443535  0.61004446  0.00000046    -0.06640
C749        C  0.03631764  0.64333592  0.99179337    -0.17880
C750        C  0.08585577  0.66659752  0.00882783     0.10510
S751        S  0.89808382  0.55409388  0.04341031    -0.32840
S752        S  0.16099571  0.70566387  0.99455454    -0.32850
H753        H  0.14470298  0.69790122  0.96851542     0.28520
H754        H  0.90937513  0.50696047  0.03867052     0.28510
H755        H  0.00392177  0.65557272  0.06136836     0.19110
H756        H  0.04694728  0.64800624  0.97159225     0.19110
C757        C  0.18724488  0.73891244  0.05130327    -0.06720
C758        C  0.24132982  0.74235779  0.05831563    -0.17850
C759        C  0.29540726  0.79755270  0.06307291     0.10480
C760        C  0.30342497  0.85452617  0.05433963    -0.06640
C761        C  0.25156684  0.84961899  0.04285360    -0.17880
C762        C  0.19386017  0.79547343  0.04362373     0.10510
S763        S  0.34824100  0.78863722  0.08235449    -0.32840
S764        S  0.13129562  0.80414851  0.03551903    -0.32850
H765        H  0.09693052  0.77378184  0.05738931     0.28520
H766        H  0.30848334  0.73105138  0.09308154     0.28510
H767        H  0.24091375  0.70148657  0.06304377     0.19110
H768        H  0.25395321  0.89012877  0.03574439     0.19110
C769        C  0.06457336  0.40165571  0.04567763    -0.06720
C770        C  0.05868999  0.35442619  0.02939395    -0.17850
C771        C  0.01291762  0.32674004  0.01024330     0.10480
C772        C  0.97526454  0.35085667  0.00498769    -0.06640
C773        C  0.97179971  0.38500025  0.02555533    -0.17880
C774        C  0.01213098  0.40661932  0.04606905     0.10510
S775        S  0.99936879  0.25693696  0.99572763    -0.32840
S776        S  0.98773732  0.42966165  0.07418125    -0.32850
H777        H  0.92731387  0.40699208  0.06721976     0.28520
H778        H  0.04782546  0.25560887  0.00693568     0.28510
H779        H  0.08647338  0.33544053  0.03301418     0.19110
H780        H  0.93556092  0.39395949  0.02626246     0.19110
C781        C  0.13585299  0.62263812  0.05966810    -0.06720
C782        C  0.14919679  0.59721855  0.03823265    -0.17850
C783        C  0.15304831  0.54400964  0.04007731     0.10480
C784        C  0.13273290  0.50713136  0.06284575    -0.06640
C785        C  0.11787729  0.53406602  0.08311038    -0.17880
C786        C  0.13435051  0.59442432  0.08326480     0.10510
S787        S  0.18567024  0.52908803  0.01267980    -0.32840
S788        S  0.16033591  0.63071711  0.11431227    -0.32850
H789        H  0.20533432  0.68726286  0.10476133     0.28520
H790        H  0.13490097  0.47180489  0.00854598     0.28510
H791        H  0.15927145  0.61939708  0.02001592     0.19110
H792        H  0.09409456  0.51054176  0.10012375     0.19110
C793        C  0.58467808  0.73297299  0.05096771    -0.06720
C794        C  0.54277495  0.73814330  0.06677207    -0.17850
C795        C  0.54006787  0.79112622  0.06895354     0.10480
C796        C  0.58180413  0.84480187  0.05501959    -0.06640
C797        C  0.61762862  0.83712785  0.03635381    -0.17880
C798        C  0.61777150  0.78228259  0.03325862     0.10510
S799        S  0.48829857  0.79047663  0.09284391    -0.32840
S800        S  0.66721009  0.78291433  0.00837812    -0.32850
H801        H  0.66872890  0.82869753  0.99312172     0.28520
H802        H  0.47043333  0.73439802  0.10458634     0.28510
H803        H  0.51124393  0.70009746  0.07823597     0.19110
H804        H  0.64938489  0.87542114  0.02481324     0.19110
C805        C  0.29274729  0.43675358  0.05473526    -0.06720
C806        C  0.27681259  0.45699237  0.07702321    -0.17850
C807        C  0.21612524  0.43711473  0.08188191     0.10480
C808        C  0.17798023  0.43355839  0.06133190    -0.06640
C809        C  0.19776164  0.42370371  0.03716328    -0.17880
C810        C  0.24911258  0.41715481  0.03436404     0.10510
S811        S  0.18870374  0.38501158  0.10885029    -0.32840
S812        S  0.25268958  0.38072134  0.00525872    -0.32850
H813        H  0.19223290  0.35562837  0.99767216     0.28520
H814        H  0.13969632  0.33794866  0.09528795     0.28510
H815        H  0.30625232  0.47051669  0.09352962     0.19110
H816        H  0.17163619  0.41668190  0.02026963     0.19110
C817        C  0.52421642  0.61816176  0.05959973    -0.06720
C818        C  0.48156252  0.60288544  0.03971834    -0.17850
C819        C  0.42345363  0.54937374  0.03986087     0.10480
C820        C  0.40708430  0.50381260  0.05914626    -0.06640
C821        C  0.43911787  0.53002943  0.08211931    -0.17880
C822        C  0.49519062  0.58572873  0.08308313     0.10510
S823        S  0.36846859  0.55363061  0.02033367    -0.32840
S824        S  0.51461451  0.61449880  0.11579451    -0.32850
H825        H  0.54403557  0.67708036  0.11121790     0.28520
H826        H  0.33701131  0.55717020  0.04177391     0.28510
H827        H  0.48982633  0.63700135  0.02560703     0.19110
H828        H  0.41780805  0.51014288  0.10027957     0.19110
C829        C  0.71334235  0.65899469  0.90133540    -0.06720
C830        C  0.75406619  0.69025485  0.92130609    -0.17850
C831        C  0.74861929  0.66358829  0.94536125     0.10480
C832        C  0.69966417  0.60296566  0.95047546    -0.06640
C833        C  0.66118368  0.57156592  0.92958068    -0.17880
C834        C  0.66627959  0.59875436  0.90569338     0.10510
S835        S  0.80802980  0.70778486  0.96823686    -0.32840
S836        S  0.61018106  0.55493863  0.88176736    -0.32850
H837        H  0.59830369  0.60142595  0.87667951     0.28520
H838        H  0.83610586  0.76411249  0.95541853     0.28510
H839        H  0.79193939  0.73583755  0.91780441     0.19110
H840        H  0.62425370  0.52648587  0.93196393     0.19110
C841        C  0.74881134  0.56983051  0.98237669    -0.06720
C842        C  0.76666801  0.54641437  0.96178400    -0.17850
C843        C  0.81381826  0.53533828  0.96337997     0.10480
C844        C  0.85964204  0.56598644  0.98237755    -0.06640
C845        C  0.84609739  0.59686842  0.00145151    -0.17880
C846        C  0.78749850  0.58762669  0.00412473     0.10510
S847        S  0.81053180  0.47980652  0.94083044    -0.32840
S848        S  0.76031478  0.57650172  0.03665166    -0.32850
H849        H  0.71847630  0.51426401  0.03221969     0.28520
H850        H  0.74827991  0.45050906  0.93558245     0.28510
H851        H  0.74340980  0.53541758  0.94372051     0.19110
H852        H  0.87886947  0.62525100  0.01558850     0.19110
C853        C  0.67379877  0.61457275  0.99492288    -0.06720
C854        C  0.71037217  0.65240087  0.01477362    -0.17850
C855        C  0.68883472  0.67464668  0.03446868     0.10480
C856        C  0.62779894  0.66355843  0.03371785    -0.06640
C857        C  0.59889801  0.64014743  0.01005087    -0.17880
C858        C  0.61892916  0.61457605  0.99144830     0.10510
S859        S  0.74633393  0.72264032  0.05750728    -0.32840
S860        S  0.57091899  0.58131132  0.96379920    -0.32850
H861        H  0.52003855  0.58209056  0.97285400     0.28520
H862        H  0.78264876  0.69703513  0.05513528     0.28510
H863        H  0.75700252  0.66572044  0.01502058     0.19110
H864        H  0.56105522  0.64364936  0.00514466     0.19110
C865        C  0.35068304  0.31472964  0.90030043    -0.06720
C866        C  0.41288783  0.35439742  0.90048261    -0.17850
C867        C  0.44643763  0.36936643  0.92302803     0.10480
C868        C  0.41871001  0.33845881  0.94674667    -0.06640
C869        C  0.35420848  0.30286746  0.94623226    -0.17880
C870        C  0.32067918  0.29033593  0.92380683     0.10510
S871        S  0.51985500  0.43447229  0.91803568    -0.32840
S872        S  0.23980486  0.24210393  0.92676976    -0.32850
H873        H  0.23930994  0.19235526  0.91500914     0.28520
H874        H  0.52107335  0.46463866  0.94050709     0.28510
H875        H  0.43586640  0.37587752  0.88263365     0.19110
H876        H  0.32902320  0.28073155  0.96356767     0.19110
C877        C  0.44800670  0.16496475  0.97958902    -0.06720
C878        C  0.48147363  0.21257370  0.99735706    -0.17850
C879        C  0.48078128  0.26770210  0.99758447     0.10480
C880        C  0.44534907  0.27788575  0.97922169    -0.06640
C881        C  0.40572977  0.22531128  0.96467188    -0.17880
C882        C  0.40262735  0.16957715  0.96649452     0.10510
S883        S  0.52986561  0.32213523  0.02126395    -0.32840
S884        S  0.33206288  0.10597862  0.95535102    -0.32850
H885        H  0.32317004  0.07051340  0.97720822     0.28520
H886        H  0.48672138  0.33359509  0.03154067     0.28510
H887        H  0.51135514  0.20838595  0.01042994     0.19110
H888        H  0.37391442  0.22426044  0.95157159     0.19110
C889        C  0.36616884  0.39844188  0.03503778    -0.06720
C890        C  0.38423345  0.42731499  0.01115581    -0.17850
C891        C  0.40437986  0.40749789  0.99057484     0.10480
C892        C  0.41100318  0.35590505  0.99318544    -0.06640
C893        C  0.38593351  0.32130056  0.01537310    -0.17880
C894        C  0.36548170  0.34119628  0.03629850     0.10510
S895        S  0.42257324  0.45284177  0.96182454    -0.32840
S896        S  0.34393928  0.28929216  0.06314539    -0.32850
H897        H  0.31614732  0.23499232  0.04864471     0.28520
H898        H  0.38166478  0.47269642  0.96558130     0.28510
H899        H  0.38108641  0.46597064  0.00769712     0.19110
H900        H  0.38594343  0.27953141  0.01735042     0.19110
C901        C  0.51745166  0.39455071  0.97668837    -0.06720
C902        C  0.53395132  0.43573480  0.99770383    -0.17850
C903        C  0.59199388  0.48539553  0.00130890     0.10480
C904        C  0.63459946  0.50483146  0.98079081    -0.06640
C905        C  0.62392719  0.45692064  0.96363410    -0.17880
C906        C  0.56765147  0.40138927  0.96218329     0.10510
S907        S  0.60996042  0.51652643  0.03359903    -0.32840
S908        S  0.56472888  0.34663360  0.93924682    -0.32850
H909        H  0.50247772  0.30998479  0.93587361     0.28520
H910        H  0.56052708  0.46832382  0.04667158     0.28510
H911        H  0.50298012  0.42762807  0.01319146     0.19110
H912        H  0.65667891  0.46280621  0.94947156     0.19110
C913        C  0.60417432  0.67063166  0.44783485    -0.06720
C914        C  0.60725804  0.61973011  0.43904052    -0.17850
C915        C  0.63206652  0.61865515  0.41501189     0.10480
C916        C  0.65163062  0.66804951  0.39816984    -0.06640
C917        C  0.64334374  0.71553941  0.40520418    -0.17880
C918        C  0.61675668  0.71593675  0.42858356     0.10510
S919        S  0.63911339  0.55408642  0.40746513    -0.32840
S920        S  0.58704778  0.76571459  0.42771401    -0.32850
H921        H  0.53425810  0.72930205  0.44206526     0.28520
H922        H  0.64332282  0.56161212  0.38068277     0.28510
H923        H  0.59232220  0.58109172  0.45163106     0.19110
H924        H  0.65507983  0.75176324  0.39148986     0.19110
C925        C  0.62800031  0.68484914  0.08138004    -0.06720
C926        C  0.62833692  0.63335314  0.09118827    -0.17850
C927        C  0.65172660  0.63373737  0.11555958     0.10480
C928        C  0.67760747  0.68725501  0.13050336    -0.06640
C929        C  0.68379443  0.73989657  0.11983224    -0.17880
C930        C  0.66263619  0.74067660  0.09543844     0.10510
S931        S  0.64675084  0.56481986  0.12633665    -0.32840
S932        S  0.69623990  0.81668992  0.08272908    -0.32850
H933        H  0.71338813  0.80471446  0.05902674     0.28520
H934        H  0.69796487  0.59335520  0.14215227     0.28510
H935        H  0.60733874  0.59135695  0.08021146     0.19110
H936        H  0.70911065  0.78257254  0.13024660     0.19110
C937        C  0.62436045  0.93318091  0.08854350    -0.06720
C938        C  0.63114875  0.89258120  0.10454984    -0.17850
C939        C  0.65036705  0.90531526  0.12987523     0.10480
C940        C  0.66952245  0.96266372  0.14020860    -0.06640
C941        C  0.66737910  0.00577374  0.12518135    -0.17880
C942        C  0.64416510  0.99198891  0.10009116     0.10510
S943        S  0.64950643  0.84578421  0.14838753    -0.32840
S944        S  0.64078595  0.05203616  0.08468092    -0.32850
H945        H  0.63702745  0.08115597  0.10698625     0.28520
H946        H  0.63074634  0.86030330  0.17133678     0.28510
H947        H  0.61976470  0.84837648  0.09853784     0.19110
H948        H  0.68501712  0.05104498  0.13307586     0.19110
C949        C  0.67979942  0.97407139  0.40454161    -0.06720
C950        C  0.71260461  0.01133359  0.42523414    -0.17850
C951        C  0.69189543  0.99670556  0.45077436     0.10480
C952        C  0.63674294  0.94000729  0.45611747    -0.06640
C953        C  0.60602289  0.90287708  0.43446941    -0.17880
C954        C  0.62504635  0.92000856  0.40928591     0.10510
S955        S  0.73585628  0.05615686  0.47375439    -0.32840
S956        S  0.57912346  0.86877471  0.38406760    -0.32850
H957        H  0.57368798  0.91369809  0.37126467     0.28520
H958        H  0.79100584  0.08536110  0.46013247     0.28510
H959        H  0.75476347  0.05328123  0.42109811     0.19110
H960        H  0.56424961  0.85977337  0.43716282     0.19110
C961        C  0.04345242  0.35893713  0.40101364    -0.06720
C962        C  0.09789308  0.41453179  0.40210336    -0.17850
C963        C  0.12559986  0.44104719  0.42547665     0.10480
C964        C  0.09249634  0.41726802  0.44954066    -0.06640
C965        C  0.03937403  0.35808241  0.44731643    -0.17880
C966        C  0.01372648  0.33066533  0.42395519     0.10510
S967        S  0.20670159  0.49497193  0.42081098    -0.32840
S968        S  0.94350234  0.25786732  0.42492563    -0.32850
H969        H  0.92192764  0.26539042  0.40139415     0.28520
H970        H  0.22483981  0.51282519  0.44620126     0.28510
H971        H  0.12334435  0.43331193  0.38443530     0.19110
H972        H  0.01720863  0.32995649  0.46385345     0.19110
C973        C  0.04081466  0.35687109  0.14164764    -0.06720
C974        C  0.09124247  0.41572147  0.14078288    -0.17850
C975        C  0.11949547  0.44332608  0.11756004     0.10480
C976        C  0.09314687  0.41264099  0.09334656    -0.06640
C977        C  0.04172614  0.35258150  0.09535655    -0.17880
C978        C  0.01460011  0.32602823  0.11865579     0.10510
S979        S  0.19195288  0.51424795  0.12233167    -0.32840
S980        S  0.94660124  0.25139276  0.11767967    -0.32850
H981        H  0.92218568  0.25835694  0.14078127     0.28520
H982        H  0.21278630  0.52947140  0.09705736     0.28510
H983        H  0.11275834  0.43822288  0.15864390     0.19110
H984        H  0.02146116  0.32411181  0.07870461     0.19110
C985        C  0.33491597  0.34984492  0.13295289    -0.06720
C986        C  0.28385082  0.32932864  0.11744035    -0.17850
C987        C  0.28852060  0.34981118  0.09221328     0.10480
C988        C  0.34555499  0.39778940  0.08278291    -0.06640
C989        C  0.39703666  0.40740196  0.09648134    -0.17880
C990        C  0.39248942  0.38667074  0.12177106     0.10510
S991        S  0.22482718  0.30467263  0.07098418    -0.32840
S992        S  0.46136997  0.40723228  0.13827661    -0.32850
H993        H  0.43705808  0.35247324  0.15210727     0.28520
H994        H  0.18560179  0.26165049  0.08916706     0.28510
H995        H  0.23974232  0.29587059  0.12498823     0.19110
H996        H  0.44152142  0.43332527  0.08777905     0.19110
C997        C  0.33635511  0.33549093  0.40884826    -0.06720
C998        C  0.39030962  0.38987147  0.41400122    -0.17850
C999        C  0.40096649  0.41825294  0.43806037     0.10480
C1000       C  0.35286697  0.39676666  0.45662658    -0.06640
C1001       C  0.30585044  0.33531256  0.45325636    -0.17880
C1002       C  0.29564093  0.30552049  0.42955037     0.10510
S1003       S  0.47964242  0.46926595  0.44481443    -0.32840
S1004       S  0.22409926  0.23503003  0.42616065    -0.32850
H1005       H  0.20410633  0.25815638  0.40673068     0.28520
H1006       H  0.48474182  0.42286761  0.45645055     0.28510
H1007       H  0.42544565  0.40946513  0.39940354     0.19110
H1008       H  0.27096068  0.31348250  0.46763431     0.19110
C1009       C  0.36189155  0.94239446  0.45020002    -0.06720
C1010       C  0.40565388  0.96137576  0.43000636    -0.17850
C1011       C  0.39906543  0.98282364  0.40634196     0.10480
C1012       C  0.34705239  0.98512936  0.40157460    -0.06640
C1013       C  0.30422801  0.96872617  0.42132510    -0.17880
C1014       C  0.31002475  0.94711837  0.44506893     0.10510
S1015       S  0.45870703  0.00580395  0.38293198    -0.32840
S1016       S  0.24972536  0.92623146  0.46845003    -0.32850
H1017       H  0.20604278  0.92235184  0.45141916     0.28520
H1018       H  0.45684588  0.05666610  0.37445445     0.28510
H1019       H  0.44413477  0.95627020  0.43117497     0.19110
H1020       H  0.26437209  0.97106094  0.41786477     0.19110
C1021       C  0.35278641  0.95053026  0.08415723    -0.06720
C1022       C  0.29529486  0.92262673  0.09633594    -0.17850
C1023       C  0.28451185  0.94730132  0.11806213     0.10480
C1024       C  0.33336542  0.99472371  0.13144070    -0.06640
C1025       C  0.38999957  0.02560378  0.11952966    -0.17880
C1026       C  0.39936465  0.00762493  0.09517939     0.10510
S1027       S  0.20665746  0.92043485  0.12601878    -0.32840
S1028       S  0.47326920  0.05959105  0.08139666    -0.32850
H1029       H  0.46962708  0.03008764  0.05841556     0.28520
H1030       H  0.21312440  0.91401743  0.15225919     0.28510
H1031       H  0.25626406  0.88295737  0.08858847     0.19110
H1032       H  0.42681507  0.06518114  0.12893224     0.19110
C1033       C  0.06927679  0.69678928  0.13638038    -0.06720
C1034       C  0.03065883  0.64541986  0.12221893    -0.17850
C1035       C  0.04727966  0.63594177  0.09778484     0.10480
C1036       C  0.10085868  0.68447070  0.08486952    -0.06640
C1037       C  0.13801088  0.73693525  0.10027830    -0.17880
C1038       C  0.12558329  0.73961492  0.12616544     0.10510
S1039       S  0.99676519  0.55876929  0.08665980    -0.32840
S1040       S  0.18695085  0.79146126  0.14666297    -0.32850
H1041       H  0.16440732  0.75592642  0.16903087     0.28520
H1042       H  0.02232079  0.55921592  0.06290459     0.28510
H1043       H  0.98783438  0.61134064  0.13068542     0.19110
H1044       H  0.18140249  0.77353071  0.09385179     0.19110
C1045       C  0.05049168  0.70452128  0.40012046    -0.06720
C1046       C  0.04539114  0.64875295  0.40473638    -0.17850
C1047       C  0.06064622  0.63539176  0.42845599     0.10480
C1048       C  0.08723122  0.68179166  0.44805105    -0.06640
C1049       C  0.08550857  0.73508319  0.44366399    -0.17880
C1050       C  0.07090348  0.74829241  0.41997878     0.10510
S1051       S  0.03566475  0.55586316  0.43139663    -0.32840
S1052       S  0.08531596  0.82446027  0.41599413    -0.32850
H1053       H  0.11675450  0.83432872  0.39260369     0.28520
H1054       H  0.02306871  0.54984970  0.45766707     0.28510
H1055       H  0.02674033  0.61396706  0.38990358     0.19110
H1056       H  0.10122254  0.76991068  0.45826435     0.19110
loop_ 
_geom_bond_atom_site_label_1 
_geom_bond_atom_site_label_2 
_geom_bond_distance 
_geom_bond_site_symmetry_2 
_ccdc_geom_bond_type 
In1           O3   2.251   1_455  S
In1           O4   2.193   1_455  S
In1          O12   2.180       .  S
In1           O6   2.245       .  S
In1           O8   2.280       .  S
In1           O9   2.214       .  S
In1          O10   2.167       .  S
In1          O13   2.235       .  S
C2            O8   1.271       .  A
C2           O10   1.258       .  A
C2           C15   1.459       .  S
O3           C11   1.266       .  A
O4           C11   1.262       .  A
C5           O12   1.257       .  A
C5            O6   1.271       .  A
C5         C1045   1.472       .  S
C7            O9   1.263       .  A
C7           O13   1.262       .  A
C7           C50   1.453       .  S
C11         C150   1.456       .  S
In14         O16   2.242       .  S
In14         O17   2.213       .  S
In14         O25   2.186       .  S
In14         O19   2.261       .  S
In14         O21   2.285       .  S
In14         O22   2.200   1_455  S
In14         O23   2.171       .  S
In14         O26   2.261   1_455  S
C15          O21   1.269       .  A
C15          O23   1.256       .  A
O16          C24   1.264       .  A
O17          C24   1.262       .  A
C18          O25   1.256       .  A
C18          O19   1.268       .  A
C18        C1033   1.460       .  S
C20          O22   1.259       .  A
C20          O26   1.263       .  A
C20         C141   1.456       .  S
C24          C33   1.455       .  S
In27         O29   2.254       .  S
In27         O30   2.177       .  S
In27         O38   2.205       .  S
In27         O32   2.267       .  S
In27         O34   2.305       .  S
In27         O35   2.214   1_545  S
In27         O36   2.169       .  S
In27         O39   2.248   1_545  S
C28          O34   1.271       .  A
C28          O36   1.256       .  A
C28          C41   1.467       .  S
O29          C37   1.266       .  A
O30          C37   1.259       .  A
C31          O38   1.256       .  A
C31          O32   1.270       .  A
C31        C1024   1.472   1_545  S
C33          O35   1.260       .  A
C33          O39   1.264       .  A
C37          C72   1.450       .  S
In40         O42   2.245   1_545  S
In40         O43   2.211   1_545  S
In40         O51   2.205       .  S
In40         O45   2.274   1_545  S
In40         O47   2.309       .  S
In40         O48   2.183       .  S
In40         O49   2.172       .  S
In40         O52   2.258       .  S
C41          O47   1.270       .  A
C41          O49   1.255       .  A
O42          C50   1.264       .  A
O43          C50   1.258       .  A
C44          O51   1.257   1_565  A
C44          O45   1.269       .  A
C44        C1012   1.486       .  S
C46          O48   1.258       .  A
C46          O52   1.266       .  A
C46          C63   1.452       .  S
In53         O55   2.255       .  S
In53         O56   2.182       .  S
In53         O64   2.198       .  S
In53         O58   2.270       .  S
In53         O60   2.313       .  S
In53         O61   2.210       .  S
In53         O62   2.181       .  S
In53         O65   2.245       .  S
C54          O60   1.272       .  A
C54          O62   1.257       .  A
C54          C67   1.474       .  S
O55          C63   1.267       .  A
O56          C63   1.260       .  A
C57          O64   1.254       .  A
C57          O58   1.273       .  A
C57         C997   1.485       .  S
C59          O61   1.260       .  A
C59          O65   1.264       .  A
C59         C102   1.454       .  S
In66         O68   2.249       .  S
In66         O69   2.199       .  S
In66         O77   2.188       .  S
In66         O71   2.288       .  S
In66         O73   2.314       .  S
In66         O74   2.178       .  S
In66         O75   2.179       .  S
In66         O78   2.257       .  S
C67          O73   1.273       .  A
C67          O75   1.256       .  A
O68          C76   1.266       .  A
O69          C76   1.259       .  A
C70          O77   1.256       .  A
C70          O71   1.273       .  A
C70         C985   1.481       .  S
C72          O74   1.258       .  A
C72          O78   1.266       .  A
C76          C85   1.453       .  S
In79         O81   2.248   1_455  S
In79         O82   2.199   1_455  S
In79         O90   2.183       .  S
In79         O84   2.248       .  S
In79         O86   2.277       .  S
In79         O87   2.209       .  S
In79         O88   2.170       .  S
In79         O91   2.248       .  S
C80          O86   1.268       .  A
C80          O88   1.256       .  A
C80          C93   1.455       .  S
O81          C89   1.265       .  A
O82          C89   1.260       .  A
C83          O90   1.257       .  A
C83          O84   1.267       .  A
C83         C973   1.465       .  S
C85          O87   1.260       .  A
C85          O91   1.262       .  A
C89         C124   1.453       .  S
In92         O94   2.248       .  S
In92         O95   2.216       .  S
In92        O103   2.195       .  S
In92         O97   2.247       .  S
In92         O99   2.279       .  S
In92        O100   2.197   1_455  S
In92        O101   2.173       .  S
In92        O104   2.245   1_455  S
C93          O99   1.267       .  A
C93         O101   1.256       .  A
O94         C102   1.262       .  A
O95         C102   1.259       .  A
C96         O103   1.257       .  A
C96          O97   1.266       .  A
C96         C961   1.467       .  S
C98         O100   1.259       .  A
C98         O104   1.264       .  A
C98         C115   1.451       .  S
In105       O107   2.242   1_565  S
In105       O108   2.194   1_565  S
In105       O116   2.199   1_565  S
In105       O110   2.246       .  S
In105       O112   2.288   1_565  S
In105       O113   2.217       .  S
In105       O114   2.175       .  S
In105       O117   2.239       .  S
C106        O112   1.270   1_565  A
C106        O114   1.257       .  A
C106        C119   1.462       .  S
O107        C115   1.265       .  A
O108        C115   1.261       .  A
C109        O116   1.257   1_565  A
C109        O110   1.268       .  A
C109        C949   1.469       .  S
C111        O113   1.261       .  A
C111        O117   1.262       .  A
C111        C154   1.454       .  S
In118       O120   2.247       .  S
In118       O121   2.211       .  S
In118       O129   2.196       .  S
In118       O123   2.259       .  S
In118       O125   2.289       .  S
In118       O126   2.200   1_565  S
In118       O127   2.177       .  S
In118       O130   2.250   1_565  S
C119        O125   1.269       .  A
C119        O127   1.257       .  A
O120        C128   1.263       .  A
O121        C128   1.261       .  A
C122        O129   1.256       .  A
C122        O123   1.268       .  A
C122        C940   1.461       .  S
C124        O126   1.259       .  A
C124        O130   1.264       .  A
C128        C137   1.455       .  S
In131       O133   2.265       .  S
In131       O134   2.194       .  S
In131       O142   2.194       .  S
In131       O136   2.296       .  S
In131       O138   2.315       .  S
In131       O139   2.208       .  S
In131       O140   2.189       .  S
In131       O143   2.252       .  S
C132        O138   1.271       .  A
C132        O140   1.256       .  A
C132        C145   1.476       .  S
O133        C141   1.266       .  A
O134        C141   1.257       .  A
C135        O142   1.255       .  A
C135        O136   1.271       .  A
C135        C928   1.479       .  S
C137        O139   1.260       .  A
C137        O143   1.265       .  A
In144       O146   2.246       .  S
In144       O147   2.221       .  S
In144       O155   2.236       .  S
In144       O149   2.269       .  S
In144       O151   2.319       .  S
In144       O152   2.192       .  S
In144       O153   2.194       .  S
In144       O156   2.256       .  S
C145        O151   1.270       .  A
C145        O153   1.255       .  A
O146        C154   1.262       .  A
O147        C154   1.259       .  A
C148        O155   1.256       .  A
C148        O149   1.266       .  A
C148        C916   1.475       .  S
C150        O152   1.259       .  A
C150        O156   1.267       .  A
C157        C868   1.596       .  S
C157        C880   1.617       .  S
C157        C892   1.583       .  S
C157        C901   1.579       .  S
C158        C832   1.580       .  S
C158        C841   1.592       .  S
C158        C853   1.592       .  S
C158        C904   1.593       .  S
C159        C805   1.599       .  S
C159        C820   1.622       .  S
C159        C889   1.605       .  S
C159        C988   1.575       .  S
C160        C793   1.596       .  S
C160        C817   1.621       .  S
C160        C856   1.609       .  S
C160        C925   1.565       .  S
C161        C769   1.600       .  S
C161        C784   1.605       .  S
C161        C808   1.626       .  S
C161        C976   1.586       .  S
C162        C745   1.601       .  S
C162        C757   1.589       .  S
C162        C781   1.597       .  S
C162       C1036   1.592       .  S
C163        C712   1.571       .  S
C163        C721   1.599       .  S
C163        C733   1.598       .  S
C163        C772   1.599   1_556  S
C164        C697   1.575       .  S
C164        C736   1.580       .  S
C164        C748   1.594   1_556  S
C164        C844   1.584       .  S
C165        C664   1.611       .  S
C165        C673   1.605       .  S
C165        C685   1.626       .  S
C165        C877   1.590       .  S
C166        C640   1.617       .  S
C166        C649   1.583       .  S
C166        C688   1.608       .  S
C166        C724   1.594       .  S
C167        C625   1.604       .  S
C167        C652   1.594       .  S
C167        C796   1.593       .  S
C167        C937   1.607       .  S
C168        C628   1.603       .  S
C168        C676   1.611       .  S
C168        C760   1.603       .  S
C168       C1021   1.564       .  S
C169        C577   1.589       .  S
C169        C589   1.606       .  S
C169        C601   1.582       .  S
C169        C613   1.616       .  S
C170        C544   1.592       .  S
C170        C556   1.588       .  S
C170        C565   1.596       .  S
C170        C604   1.584       .  S
C171        C517   1.589       .  S
C171        C532   1.614       .  S
C171        C553   1.586       .  S
C171        C952   1.576       .  S
C172        C508   1.591       .  S
C172        C529   1.594       .  S
C172        C592   1.617       .  S
C172       C1009   1.591       .  S
C173        C469   1.578       .  S
C173        C484   1.576       .  S
C173        C493   1.584       .  S
C173        C616   1.574       .  S
C174        C433   1.571       .  S
C174        C445   1.585       .  S
C174        C457   1.605       .  S
C174        C496   1.566       .  S
C175        C409   1.598       .  S
C175        C421   1.591       .  S
C175        C481   1.567       .  S
C175       C1000   1.586       .  S
C176        C424   1.612       .  S
C176        C460   1.636       .  S
C176        C520   1.579       .  S
C176        C913   1.585       .  S
C177        C385   1.591       .  S
C177        C397   1.627       .  S
C177        C412   1.623       .  S
C177        C964   1.607       .  S
C178        C373   1.597       .  S
C178        C400   1.572       .  S
C178        C505   1.596       .  S
C178       C1048   1.578       .  S
C179        C349   1.576       .  S
C179        C361   1.609       .  S
C179        C388   1.613       .  S
C179        C568   1.602       .  S
C180        C340   1.578       .  S
C180        C364   1.609       .  S
C180        C376   1.587       .  S
C180        C448   1.586       .  S
In181       O183   2.257       .  S
In181       O184   2.171       .  S
In181       O192   2.204       .  S
In181       O186   2.280       .  S
In181       O188   2.310       .  S
In181       O189   2.201   1_455  S
In181       O190   2.174       .  S
In181       O193   2.244   1_455  S
C182        O188   1.272       .  A
C182        O190   1.255       .  A
C182        C195   1.469       .  S
O183        C191   1.268       .  A
O184        C191   1.258       .  A
C185        O192   1.255       .  A
C185        O186   1.270       .  A
C185        C337   1.473   1_455  S
C187        O189   1.258       .  A
C187        O193   1.264       .  A
C187        C321   1.449       .  S
C191        C213   1.450       .  S
In194       O196   2.234   1_455  S
In194       O197   2.214   1_455  S
In194       O205   2.200       .  S
In194       O199   2.260       .  S
In194       O201   2.304       .  S
In194       O202   2.194       .  S
In194       O203   2.177       .  S
In194       O206   2.261       .  S
C195        O201   1.270       .  A
C195        O203   1.257       .  A
O196        C204   1.264       .  A
O197        C204   1.261       .  A
C198        O205   1.257   1_655  A
C198        O199   1.269   1_655  A
C198        C700   1.484       .  S
C200        O202   1.258       .  A
C200        O206   1.264       .  A
C200        C230   1.455       .  S
C204        C330   1.451       .  S
In207       O209   2.230       .  S
In207       O210   2.212       .  S
In207       O218   2.192       .  S
In207       O212   2.240       .  S
In207       O214   2.284       .  S
In207       O215   2.176   1_545  S
In207       O216   2.163       .  S
In207       O219   2.252   1_545  S
C208        O214   1.270       .  A
C208        O216   1.258       .  A
C208        C221   1.458       .  S
O209        C217   1.262       .  A
O210        C217   1.261       .  A
C211        O218   1.257       .  A
C211        O212   1.269       .  A
C211        C580   1.466       .  S
C213        O215   1.261       .  A
C213        O219   1.266       .  A
C217        C239   1.450       .  S
In220       O222   2.261   1_545  S
In220       O223   2.191   1_545  S
In220       O231   2.189       .  S
In220       O225   2.271       .  S
In220       O227   2.292   1_545  S
In220       O228   2.214       .  S
In220       O229   2.169       .  S
In220       O232   2.245       .  S
C221        O227   1.268   1_545  A
C221        O229   1.255       .  A
O222        C230   1.266       .  A
O223        C230   1.258       .  A
C224        O231   1.256       .  A
C224        O225   1.266       .  A
C224        C661   1.472       .  S
C226        O228   1.258       .  A
C226        O232   1.262       .  A
C226        C256   1.452       .  S
In233       O235   2.257       .  S
In233       O236   2.185       .  S
In233       O244   2.185       .  S
In233       O238   2.280       .  S
In233       O240   2.293       .  S
In233       O241   2.207       .  S
In233       O242   2.169       .  S
In233       O245   2.234       .  S
C234        O240   1.272       .  A
C234        O242   1.256       .  A
C234        C247   1.463       .  S
O235        C243   1.266       .  A
O236        C243   1.258       .  A
C237        O244   1.257       .  A
C237        O238   1.271       .  A
C237        C472   1.476       .  S
C239        O241   1.261       .  A
C239        O245   1.264       .  A
C243        C265   1.453       .  S
In246       O248   2.236       .  S
In246       O249   2.211       .  S
In246       O257   2.196       .  S
In246       O251   2.234       .  S
In246       O253   2.290       .  S
In246       O254   2.197       .  S
In246       O255   2.174       .  S
In246       O258   2.240       .  S
C247        O253   1.269       .  A
C247        O255   1.259       .  A
O248        C256   1.263       .  A
O249        C256   1.262       .  A
C250        O257   1.256       .  A
C250        O251   1.271       .  A
C250        C865   1.477       .  S
C252        O254   1.261       .  A
C252        O258   1.264       .  A
C252        C282   1.451       .  S
In259       O261   2.241   1_455  S
In259       O262   2.220   1_455  S
In259       O270   2.197       .  S
In259       O264   2.265   1_455  S
In259       O266   2.303       .  S
In259       O267   2.184       .  S
In259       O268   2.178       .  S
In259       O271   2.254       .  S
C260        O266   1.271       .  A
C260        O268   1.256       .  A
C260        C273   1.468       .  S
O261        C269   1.262       .  A
O262        C269   1.260       .  A
C263        O270   1.254       .  A
C263        O264   1.269   1_455  A
C263        C352   1.475   1_455  S
C265        O267   1.260       .  A
C265        O271   1.267       .  A
C269        C291   1.455       .  S
In272       O274   2.243       .  S
In272       O275   2.196       .  S
In272       O283   2.220       .  S
In272       O277   2.260       .  S
In272       O279   2.306       .  S
In272       O280   2.217   1_455  S
In272       O281   2.183       .  S
In272       O284   2.247   1_455  S
C273        O279   1.269       .  A
C273        O281   1.256       .  A
O274        C282   1.266       .  A
O275        C282   1.260       .  A
C276        O283   1.256       .  A
C276        O277   1.268       .  A
C276        C709   1.477       .  S
C278        O280   1.259       .  A
C278        O284   1.262       .  A
C278        C308   1.455       .  S
In285       O287   2.261       .  S
In285       O288   2.193       .  S
In285       O296   2.200       .  S
In285       O290   2.273   1_565  S
In285       O292   2.304       .  S
In285       O293   2.220   1_565  S
In285       O294   2.184   1_565  S
In285       O297   2.244   1_565  S
C286        O292   1.269       .  A
C286        O294   1.256   1_565  A
C286        C299   1.469       .  S
O287        C295   1.266       .  A
O288        C295   1.258       .  A
C289        O296   1.256   1_545  A
C289        O290   1.268       .  A
C289        C541   1.474       .  S
C291        O293   1.260       .  A
C291        O297   1.263       .  A
C295        C317   1.455       .  S
In298       O300   2.247       .  S
In298       O301   2.216       .  S
In298       O309   2.200   1_545  S
In298       O303   2.280       .  S
In298       O305   2.304   1_545  S
In298       O306   2.200   1_545  S
In298       O307   2.183       .  S
In298       O310   2.261   1_545  S
C299        O305   1.270       .  A
C299        O307   1.256   1_565  A
O300        C308   1.263       .  A
O301        C308   1.260       .  A
C302        O309   1.256   1_545  A
C302        O303   1.269       .  A
C302        C637   1.485       .  S
C304        O306   1.259       .  A
C304        O310   1.266       .  A
C304        C334   1.459       .  S
In311       O313   2.233       .  S
In311       O314   2.201       .  S
In311       O322   2.202       .  S
In311       O316   2.261       .  S
In311       O318   2.298       .  S
In311       O319   2.189       .  S
In311       O320   2.170       .  S
In311       O323   2.252       .  S
C312        O318   1.273       .  A
C312        O320   1.258       .  A
C312        C325   1.467       .  S
O313        C321   1.263       .  A
O314        C321   1.262       .  A
C315        O322   1.258       .  A
C315        O316   1.272       .  A
C315        C436   1.479       .  S
C317        O319   1.262       .  A
C317        O323   1.267       .  A
In324       O326   2.259       .  S
In324       O327   2.199       .  S
In324       O335   2.203       .  S
In324       O329   2.255       .  S
In324       O331   2.300       .  S
In324       O332   2.216       .  S
In324       O333   2.176       .  S
In324       O336   2.231       .  S
C325        O331   1.270       .  A
C325        O333   1.257       .  A
O326        C334   1.266       .  A
O327        C334   1.260       .  A
C328        O335   1.258       .  A
C328        O329   1.270       .  A
C328        C829   1.487       .  S
C330        O332   1.262       .  A
C330        O336   1.262       .  A
C337        C338   1.397   1_655  A
C337        C342   1.402       .  A
C338        C339   1.413       .  A
C338        H347   1.082       .  S
C339        C340   1.436   1_455  A
C339        S343   1.807       .  S
C340        C341   1.421       .  A
C341        C342   1.389       .  A
C341        H348   1.076       .  S
C342        S344   1.802       .  S
S343        H346   1.406       .  S
S344        H345   1.406       .  S
C349        C350   1.417       .  A
C349        C354   1.439       .  A
C350        C351   1.398       .  A
C350        H359   1.082       .  S
C351        C352   1.412       .  A
C351        S355   1.801       .  S
C352        C353   1.389       .  A
C353        C354   1.399       .  A
C353        H360   1.085   1_655  S
C354        S356   1.791   1_655  S
S355        H358   1.405       .  S
S356        H357   1.380       .  S
C361        C362   1.418       .  A
C361        C366   1.407       .  A
C362        C363   1.424       .  A
C362        H371   1.078       .  S
C363        C364   1.448       .  A
C363        S367   1.809       .  S
C364        C365   1.418       .  A
C365        C366   1.399       .  A
C365        H372   1.065       .  S
C366        S368   1.810       .  S
S367        H370   1.407       .  S
S368        H369   1.408       .  S
C373        C374   1.420       .  A
C373        C378   1.423       .  A
C374        C375   1.395   1_455  A
C374        H383   1.073   1_455  S
C375        C376   1.426       .  A
C375        S379   1.819       .  S
C376        C377   1.428   1_655  A
C377        C378   1.414       .  A
C377        H384   1.079       .  S
C378        S380   1.806       .  S
S379        H382   1.393       .  S
S380        H381   1.397       .  S
C385        C386   1.413       .  A
C385        C390   1.438       .  A
C386        C387   1.425       .  A
C386        H395   1.076       .  S
C387        C388   1.452   1_455  A
C387        S391   1.804       .  S
C388        C389   1.400       .  A
C389        C390   1.394   1_655  A
C389        H396   1.065       .  S
C390        S392   1.810   1_455  S
S391        H394   1.408       .  S
S392        H393   1.380   1_655  S
C397        C398   1.411       .  A
C397        C402   1.446       .  A
C398        C399   1.399       .  A
C398        H407   1.028       .  S
C399        C400   1.418       .  A
C399        S403   1.808       .  S
C400        C401   1.407       .  A
C401        C402   1.412       .  A
C401        H408   1.079       .  S
C402        S404   1.787       .  S
S403        H406   1.408       .  S
S404        H405   1.407       .  S
C409        C410   1.417       .  A
C409        C414   1.429       .  A
C410        C411   1.424       .  A
C410        H419   1.062       .  S
C411        C412   1.431       .  A
C411        S415   1.784       .  S
C412        C413   1.429       .  A
C413        C414   1.400       .  A
C413        H420   1.076       .  S
C414        S416   1.808       .  S
S415        H418   1.406       .  S
S416        H417   1.399       .  S
C421        C422   1.394       .  A
C421        C426   1.436       .  A
C422        C423   1.412       .  A
C422        H431   1.075       .  S
C423        C424   1.457       .  A
C423        S427   1.808       .  S
C424        C425   1.406       .  A
C425        C426   1.399       .  A
C425        H432   1.059       .  S
C426        S428   1.812       .  S
S427        H430   1.408       .  S
S428        H429   1.395       .  S
C433        C434   1.420       .  A
C433        C438   1.430       .  A
C434        C435   1.397       .  A
C434        H443   1.078       .  S
C435        C436   1.407       .  A
C435        S439   1.803       .  S
C436        C437   1.403       .  A
C437        C438   1.406       .  A
C437        H444   1.083       .  S
C438        S440   1.812       .  S
S439        H442   1.405       .  S
S440        H441   1.406       .  S
C445        C446   1.410       .  A
C445        C450   1.446       .  A
C446        C447   1.404       .  A
C446        H455   1.080       .  S
C447        C448   1.435       .  A
C447        S451   1.804       .  S
C448        C449   1.408       .  A
C449        C450   1.406       .  A
C449        H456   1.075       .  S
C450        S452   1.814       .  S
S451        H454   1.400       .  S
S452        H453   1.408       .  S
C457        C458   1.416       .  A
C457        C462   1.438       .  A
C458        C459   1.412       .  A
C458        H467   1.080       .  S
C459        C460   1.435       .  A
C459        S463   1.805       .  S
C460        C461   1.428       .  A
C461        C462   1.426       .  A
C461        H468   1.075       .  S
C462        S464   1.808       .  S
S463        H466   1.406       .  S
S464        H465   1.396       .  S
C469        C470   1.421       .  A
C469        C474   1.436       .  A
C470        C471   1.403       .  A
C470        H479   1.077       .  S
C471        C472   1.403       .  A
C471        S475   1.801       .  S
C472        C473   1.397       .  A
C473        C474   1.397       .  A
C473        H480   1.084       .  S
C474        S476   1.813       .  S
S475        H478   1.406       .  S
S476        H477   1.408       .  S
C481        C482   1.402       .  A
C481        C486   1.434       .  A
C482        C483   1.361       .  A
C482        H491   1.069       .  S
C483        C484   1.413       .  A
C483        S487   1.805       .  S
C484        C485   1.425       .  A
C485        C486   1.436       .  A
C485        H492   1.080       .  S
C486        S488   1.803       .  S
S487        H490   1.405       .  S
S488        H489   1.406       .  S
C493        C494   1.408       .  A
C493        C498   1.431       .  A
C494        C495   1.403       .  A
C494        H503   1.075       .  S
C495        C496   1.435       .  A
C495        S499   1.816       .  S
C496        C497   1.409       .  A
C497        C498   1.400       .  A
C497        H504   1.073       .  S
C498        S500   1.806       .  S
S499        H502   1.406       .  S
S500        H501   1.406       .  S
C505        C506   1.417       .  A
C505        C510   1.426       .  A
C506        C507   1.393       .  A
C506        H515   1.077       .  S
C507        C508   1.436       .  A
C507        S511   1.815       .  S
C508        C509   1.422       .  A
C509        C510   1.420       .  A
C509        H516   1.071       .  S
C510        S512   1.799       .  S
S511        H514   1.397       .  S
S512        H513   1.407       .  S
C517        C518   1.419       .  A
C517        C522   1.423       .  A
C518        C519   1.409       .  A
C518        H527   1.081       .  S
C519        C520   1.425       .  A
C519        S523   1.800       .  S
C520        C521   1.420       .  A
C521        C522   1.414       .  A
C521        H528   1.074       .  S
C522        S524   1.808       .  S
S523        H526   1.406       .  S
S524        H525   1.407       .  S
C529        C530   1.408       .  A
C529        C534   1.446       .  A
C530        C531   1.397       .  A
C530        H539   1.084   1_565  S
C531        C532   1.433       .  A
C531        S535   1.799   1_565  S
C532        C533   1.410       .  A
C533        C534   1.419       .  A
C533        H540   1.075       .  S
C534        S536   1.813       .  S
S535        H538   1.390       .  S
S536        H537   1.407       .  S
C541        C542   1.387       .  A
C541        C546   1.401       .  A
C542        C543   1.408       .  A
C542        H551   1.083   1_545  S
C543        C544   1.447       .  A
C543        S547   1.799   1_545  S
C544        C545   1.417       .  A
C545        C546   1.391       .  A
C545        H552   1.080       .  S
C546        S548   1.785       .  S
S547        H550   1.407       .  S
S548        H549   1.404       .  S
C553        C554   1.387       .  A
C553        C558   1.429       .  A
C554        C555   1.374   1_565  A
C554        H563   1.080       .  S
C555        C556   1.430       .  A
C555        S559   1.766       .  S
C556        C557   1.429       .  A
C557        C558   1.431   1_545  A
C557        H564   1.082       .  S
C558        S560   1.794       .  S
S559        H562   1.391   1_545  S
S560        H561   1.407       .  S
C565        C566   1.418       .  A
C565        C570   1.428       .  A
C566        C567   1.428       .  A
C566        H575   1.074       .  S
C567        C568   1.439       .  A
C567        S571   1.808       .  S
C568        C569   1.413       .  A
C569        C570   1.403       .  A
C569        H576   1.074       .  S
C570        S572   1.811       .  S
S571        H574   1.406       .  S
S572        H573   1.407       .  S
C577        C578   1.422       .  A
C577        C582   1.450       .  A
C578        C579   1.389       .  A
C578        H587   1.055       .  S
C579        C580   1.395       .  A
C579        S583   1.803       .  S
C580        C581   1.392       .  A
C581        C582   1.404       .  A
C581        H588   1.084   1_545  S
C582        S584   1.810   1_545  S
S583        H586   1.406       .  S
S584        H585   1.408       .  S
C589        C590   1.423   1_545  A
C589        C594   1.421       .  A
C590        C591   1.422       .  A
C590        H599   1.075       .  S
C591        C592   1.437       .  A
C591        S595   1.819       .  S
C592        C593   1.434   1_565  A
C593        C594   1.407       .  A
C593        H600   1.071       .  S
C594        S596   1.817       .  S
S595        H598   1.381       .  S
S596        H597   1.404       .  S
C601        C602   1.422       .  A
C601        C606   1.438       .  A
C602        C603   1.413       .  A
C602        H611   1.083       .  S
C603        C604   1.434       .  A
C603        S607   1.803       .  S
C604        C605   1.406       .  A
C605        C606   1.403       .  A
C605        H612   1.072       .  S
C606        S608   1.815       .  S
S607        H610   1.398       .  S
S608        H609   1.407       .  S
C613        C614   1.412       .  A
C613        C618   1.433       .  A
C614        C615   1.428       .  A
C614        H623   1.071       .  S
C615        C616   1.431       .  A
C615        S619   1.806       .  S
C616        C617   1.411       .  A
C617        C618   1.391       .  A
C617        H624   1.082       .  S
C618        S620   1.824       .  S
S619        H622   1.406       .  S
S620        H621   1.407       .  S
C625        C626   1.416       .  A
C625        C630   1.437       .  A
C626        C627   1.405       .  A
C626        H635   1.073       .  S
C627        C628   1.443       .  A
C627        S631   1.818       .  S
C628        C629   1.416       .  A
C629        C630   1.408       .  A
C629        H636   1.071       .  S
C630        S632   1.822       .  S
S631        H634   1.400       .  S
S632        H633   1.408       .  S
C637        C638   1.396       .  A
C637        C642   1.403       .  A
C638        C639   1.410       .  A
C638        H647   1.085       .  S
C639        C640   1.444       .  A
C639        S643   1.793       .  S
C640        C641   1.432       .  A
C641        C642   1.392       .  A
C641        H648   1.080       .  S
C642        S644   1.806   1_545  S
S643        H646   1.396       .  S
S644        H645   1.408       .  S
C649        C650   1.423   1_556  A
C649        C654   1.438   1_545  A
C650        C651   1.424       .  A
C650        H659   1.081       .  S
C651        C652   1.431   1_545  A
C651        S655   1.802       .  S
C652        C653   1.399       .  A
C653        C654   1.390   1_554  A
C653        H660   1.058       .  S
C654        S656   1.812       .  S
S655        H658   1.407   1_545  S
S656        H657   1.392   1_565  S
C661        C662   1.391       .  A
C661        C666   1.394       .  A
C662        C663   1.412       .  A
C662        H671   1.084       .  S
C663        C664   1.441       .  A
C663        S667   1.784       .  S
C664        C665   1.434       .  A
C665        C666   1.387       .  A
C665        H672   1.076       .  S
C666        S668   1.808   1_545  S
S667        H670   1.408       .  S
S668        H669   1.407       .  S
C673        C674   1.412   1_556  A
C673        C678   1.446   1_545  A
C674        C675   1.417       .  A
C674        H683   1.080       .  S
C675        C676   1.449   1_545  A
C675        S679   1.806       .  S
C676        C677   1.399       .  A
C677        C678   1.398   1_554  A
C677        H684   1.067       .  S
C678        S680   1.811       .  S
S679        H682   1.401   1_545  S
S680        H681   1.395   1_565  S
C685        C686   1.404   1_556  A
C685        C690   1.438       .  A
C686        C687   1.391       .  A
C686        H695   1.078       .  S
C687        C688   1.437   1_554  A
C687        S691   1.778       .  S
C688        C689   1.409       .  A
C689        C690   1.426       .  A
C689        H696   1.077       .  S
C690        S692   1.806       .  S
S691        H694   1.408       .  S
S692        H693   1.381       .  S
C697        C698   1.420       .  A
C697        C702   1.429       .  A
C698        C699   1.395       .  A
C698        H707   1.078       .  S
C699        C700   1.405       .  A
C699        S703   1.801       .  S
C700        C701   1.404       .  A
C701        C702   1.401       .  A
C701        H708   1.082       .  S
C702        S704   1.813       .  S
S703        H706   1.409       .  S
S704        H705   1.406       .  S
C709        C710   1.391   1_455  A
C709        C714   1.409       .  A
C710        C711   1.397       .  A
C710        H719   1.085       .  S
C711        C712   1.446       .  A
C711        S715   1.811       .  S
C712        C713   1.419   1_655  A
C713        C714   1.402       .  A
C713        H720   1.072       .  S
C714        S716   1.804       .  S
S715        H718   1.389       .  S
S716        H717   1.407       .  S
C721        C722   1.419   1_556  A
C721        C726   1.443       .  A
C722        C723   1.424       .  A
C722        H731   1.082       .  S
C723        C724   1.429   1_554  A
C723        S727   1.796       .  S
C724        C725   1.408       .  A
C725        C726   1.400       .  A
C725        H732   1.074       .  S
C726        S728   1.814       .  S
S727        H730   1.401       .  S
S728        H729   1.409       .  S
C733        C734   1.422       .  A
C733        C738   1.435       .  A
C734        C735   1.419       .  A
C734        H743   1.069       .  S
C735        C736   1.432       .  A
C735        S739   1.811   1_556  S
C736        C737   1.403       .  A
C737        C738   1.383       .  A
C737        H744   1.076   1_655  S
C738        S740   1.805   1_655  S
S739        H742   1.408       .  S
S740        H741   1.383       .  S
C745        C746   1.421       .  A
C745        C750   1.429       .  A
C746        C747   1.402   1_455  A
C746        H755   1.071       .  S
C747        C748   1.413       .  A
C747        S751   1.800       .  S
C748        C749   1.431   1_654  A
C749        C750   1.416   1_556  A
C749        H756   1.077       .  S
C750        S752   1.816   1_554  S
S751        H754   1.406       .  S
S752        H753   1.406       .  S
C757        C758   1.409       .  A
C757        C762   1.432       .  A
C758        C759   1.402       .  A
C758        H767   1.075       .  S
C759        C760   1.444       .  A
C759        S763   1.814       .  S
C760        C761   1.420       .  A
C761        C762   1.416       .  A
C761        H768   1.078       .  S
C762        S764   1.802       .  S
S763        H766   1.405       .  S
S764        H765   1.403       .  S
C769        C770   1.418       .  A
C769        C774   1.430       .  A
C770        C771   1.428       .  A
C770        H779   1.078       .  S
C771        C772   1.431   1_455  A
C771        S775   1.801   1_454  S
C772        C773   1.412       .  A
C773        C774   1.396   1_655  A
C773        H780   1.078       .  S
C774        S776   1.804   1_455  S
S775        H778   1.406   1_656  S
S776        H777   1.407       .  S
C781        C782   1.418       .  A
C781        C786   1.421       .  A
C782        C783   1.426       .  A
C782        H791   1.068       .  S
C783        C784   1.437       .  A
C783        S787   1.791       .  S
C784        C785   1.415       .  A
C785        C786   1.378       .  A
C785        H792   1.067       .  S
C786        S788   1.812       .  S
S787        H790   1.388       .  S
S788        H789   1.397       .  S
C793        C794   1.417       .  A
C793        C798   1.435       .  A
C794        C795   1.403       .  A
C794        H803   1.071       .  S
C795        C796   1.429       .  A
C795        S799   1.815       .  S
C796        C797   1.420       .  A
C797        C798   1.420       .  A
C797        H804   1.078       .  S
C798        S800   1.808       .  S
S799        H802   1.406       .  S
S800        H801   1.408   1_554  S
C805        C806   1.413       .  A
C805        C810   1.442       .  A
C806        C807   1.398       .  A
C806        H815   1.083       .  S
C807        C808   1.433       .  A
C807        S811   1.813       .  S
C808        C809   1.425       .  A
C809        C810   1.432       .  A
C809        H816   1.071       .  S
C810        S812   1.803       .  S
S811        H814   1.406       .  S
S812        H813   1.408   1_554  S
C817        C818   1.418       .  A
C817        C822   1.449       .  A
C818        C819   1.414       .  A
C818        H827   1.079       .  S
C819        C820   1.432       .  A
C819        S823   1.808       .  S
C820        C821   1.414       .  A
C821        C822   1.412       .  A
C821        H828   1.079       .  S
C822        S824   1.820       .  S
S823        H826   1.407       .  S
S824        H825   1.396       .  S
C829        C830   1.402       .  A
C829        C834   1.403       .  A
C830        C831   1.402       .  A
C830        H839   1.082       .  S
C831        C832   1.431       .  A
C831        S835   1.809       .  S
C832        C833   1.414       .  A
C833        C834   1.402       .  A
C833        H840   1.057       .  S
C834        S836   1.800       .  S
S835        H838   1.406       .  S
S836        H837   1.408       .  S
C841        C842   1.414       .  A
C841        C846   1.426   1_556  A
C842        C843   1.395       .  A
C842        H851   1.076       .  S
C843        C844   1.430       .  A
C843        S847   1.810       .  S
C844        C845   1.419   1_556  A
C845        C846   1.415       .  A
C845        H852   1.074       .  S
C846        S848   1.795       .  S
S847        H850   1.408       .  S
S848        H849   1.407       .  S
C853        C854   1.399   1_556  A
C853        C858   1.435       .  A
C854        C855   1.416       .  A
C854        H863   1.071       .  S
C855        C856   1.455       .  A
C855        S859   1.810       .  S
C856        C857   1.407       .  A
C857        C858   1.406   1_554  A
C857        H864   1.064       .  S
C858        S860   1.805       .  S
S859        H862   1.406       .  S
S860        H861   1.406       .  S
C865        C866   1.387       .  A
C865        C870   1.408       .  A
C866        C867   1.395       .  A
C866        H875   1.085       .  S
C867        C868   1.441       .  A
C867        S871   1.779       .  S
C868        C869   1.428       .  A
C869        C870   1.394       .  A
C869        H876   1.083       .  S
C870        S872   1.800       .  S
S871        H874   1.391       .  S
S872        H873   1.408       .  S
C877        C878   1.414       .  A
C877        C882   1.422       .  A
C878        C879   1.426       .  A
C878        H887   1.083   1_556  S
C879        C880   1.448       .  A
C879        S883   1.802   1_556  S
C880        C881   1.417       .  A
C881        C882   1.396       .  A
C881        H888   1.064       .  S
C882        S884   1.801       .  S
S883        H886   1.398       .  S
S884        H885   1.404       .  S
C889        C890   1.399       .  A
C889        C894   1.464       .  A
C890        C891   1.393   1_554  A
C890        H899   1.055       .  S
C891        C892   1.431       .  A
C891        S895   1.806       .  S
C892        C893   1.395   1_556  A
C893        C894   1.412       .  A
C893        H900   1.079       .  S
C894        S896   1.811       .  S
S895        H898   1.408       .  S
S896        H897   1.409       .  S
C901        C902   1.422       .  A
C901        C906   1.428       .  A
C902        C903   1.388   1_556  A
C902        H911   1.074   1_556  S
C903        C904   1.422   1_554  A
C903        S907   1.814       .  S
C904        C905   1.423       .  A
C905        C906   1.414       .  A
C905        H912   1.069       .  S
C906        S908   1.811       .  S
S907        H910   1.407       .  S
S908        H909   1.393       .  S
C913        C914   1.424       .  A
C913        C918   1.443       .  A
C914        C915   1.408       .  A
C914        H923   1.081       .  S
C915        C916   1.405       .  A
C915        S919   1.802       .  S
C916        C917   1.391       .  A
C917        C918   1.396       .  A
C917        H924   1.086       .  S
C918        S920   1.806       .  S
S919        H922   1.405       .  S
S920        H921   1.401       .  S
C925        C926   1.426       .  A
C925        C930   1.434       .  A
C926        C927   1.409       .  A
C926        H935   1.083       .  S
C927        C928   1.407       .  A
C927        S931   1.801       .  S
C928        C929   1.396       .  A
C929        C930   1.393       .  A
C929        H936   1.084       .  S
C930        S932   1.802       .  S
S931        H934   1.405       .  S
S932        H933   1.394       .  S
C937        C938   1.422       .  A
C937        C942   1.447       .  A
C938        C939   1.390       .  A
C938        H947   1.060       .  S
C939        C940   1.393       .  A
C939        S943   1.804       .  S
C940        C941   1.386   1_565  A
C941        C942   1.407   1_545  A
C941        H948   1.084       .  S
C942        S944   1.787   1_565  S
S943        H946   1.406       .  S
S944        H945   1.407       .  S
C949        C950   1.398   1_565  A
C949        C954   1.396       .  A
C950        C951   1.408   1_545  A
C950        H959   1.083       .  S
C951        C952   1.439       .  A
C951        S955   1.803   1_565  S
C952        C953   1.423       .  A
C953        C954   1.388       .  A
C953        H960   1.081       .  S
C954        S956   1.802       .  S
S955        H958   1.407       .  S
S956        H957   1.407       .  S
C961        C962   1.391       .  A
C961        C966   1.400       .  A
C962        C963   1.399       .  A
C962        H971   1.085       .  S
C963        C964   1.457       .  A
C963        S967   1.832       .  S
C964        C965   1.428       .  A
C965        C966   1.390       .  A
C965        H972   1.077       .  S
C966        S968   1.807   1_455  S
S967        H970   1.399       .  S
S968        H969   1.407       .  S
C973        C974   1.392       .  A
C973        C978   1.401       .  A
C974        C975   1.399       .  A
C974        H983   1.085       .  S
C975        C976   1.456       .  A
C975        S979   1.829       .  S
C976        C977   1.423       .  A
C977        C978   1.388       .  A
C977        H984   1.078       .  S
C978        S980   1.807   1_455  S
S979        H982   1.397       .  S
S980        H981   1.407       .  S
C985        C986   1.403       .  A
C985        C990   1.407       .  A
C986        C987   1.399       .  A
C986        H995   1.083       .  S
C987        C988   1.429       .  A
C987        S991   1.820       .  S
C988        C989   1.422       .  A
C989        C990   1.405       .  A
C989        H996   1.083       .  S
C990        S992   1.801       .  S
S991        H994   1.406       .  S
S992        H993   1.406       .  S
C997        C998   1.395       .  A
C997       C1002   1.418       .  A
C998        C999   1.401       .  A
C998       H1007   1.084       .  S
C999       C1000   1.436       .  A
C999       S1003   1.794       .  S
C1000      C1001   1.416       .  A
C1001      C1002   1.401       .  A
C1001      H1008   1.076       .  S
C1002      S1004   1.803       .  S
S1003      H1006   1.408       .  S
S1004      H1005   1.409       .  S
C1009      C1010   1.428       .  A
C1009      C1014   1.439       .  A
C1010      C1011   1.401       .  A
C1010      H1019   1.074       .  S
C1011      C1012   1.404       .  A
C1011      S1015   1.802   1_565  S
C1012      C1013   1.402       .  A
C1013      C1014   1.400       .  A
C1013      H1020   1.082       .  S
C1014      S1016   1.820       .  S
S1015      H1018   1.407       .  S
S1016      H1017   1.406       .  S
C1021      C1022   1.418       .  A
C1021      C1026   1.447   1_565  A
C1022      C1023   1.389       .  A
C1022      H1031   1.073       .  S
C1023      C1024   1.403       .  A
C1023      S1027   1.804       .  S
C1024      C1025   1.394   1_565  A
C1025      C1026   1.408       .  A
C1025      H1032   1.084       .  S
C1026      S1028   1.813       .  S
S1027      H1030   1.400       .  S
S1028      H1029   1.390       .  S
C1033      C1034   1.382       .  A
C1033      C1038   1.394       .  A
C1034      C1035   1.400       .  A
C1034      H1043   1.084   1_455  S
C1035      C1036   1.458       .  A
C1035      S1039   1.810   1_455  S
C1036      C1037   1.427       .  A
C1037      C1038   1.393       .  A
C1037      H1044   1.075       .  S
C1038      S1040   1.802       .  S
S1039      H1042   1.395   1_655  S
S1040      H1041   1.406       .  S
C1045      C1046   1.392       .  A
C1045      C1050   1.410       .  A
C1046      C1047   1.399       .  A
C1046      H1055   1.085       .  S
C1047      C1048   1.441       .  A
C1047      S1051   1.801       .  S
C1048      C1049   1.414       .  A
C1049      C1050   1.389       .  A
C1049      H1056   1.078       .  S
C1050      S1052   1.805       .  S
S1051      H1054   1.394       .  S
S1052      H1053   1.408       .  S
