geometry optimzed in LAMMPS
_audit_creation_date              2020-11-30 
_audit_creation_method            'lammps2cif' 
_symmetry_space_group_name_H-M    'P1' 
_symmetry_Int_Tables_number       1 
_symmetry_cell_setting            triclinic 
loop_ 
_symmetry_equiv_pos_as_xyz 
  x,y,z 
_cell_length_a                    24.95005874 
_cell_length_b                    25.083045680974095 
_cell_length_c                    47.26234181293632 
_cell_angle_alpha                 92.18570262343155 
_cell_angle_beta                  89.08350708924044 
_cell_angle_gamma                 90.18382121017018 
loop_ 
_atom_site_label 
_atom_site_type_symbol 
_atom_site_fract_x 
_atom_site_fract_y 
_atom_site_fract_z 
_atom_site_charge 
O1          O  0.44620852  0.41529856  0.20704015    -0.81800
O2          O  0.54008665  0.53732904  0.20656953    -0.81800
O3          O  0.41796279  0.53585832  0.22059524    -0.81900
O4          O  0.61839256  0.42155119  0.23475598    -0.81800
O5          O  0.46520331  0.61001231  0.22630308    -0.81900
O6          O  0.55395476  0.40440606  0.20442805    -0.81800
O7          O  0.61103025  0.52915817  0.23339802    -0.81800
O8          O  0.38469635  0.43794632  0.23811058    -0.81900
C9          C  0.39782740  0.41492002  0.21480715     1.07900
C10         C  0.58997997  0.54374151  0.21042667     1.07800
C11         C  0.42606857  0.58551511  0.21505050     1.07900
C12         C  0.60298988  0.40411305  0.21052178     1.07800
O13         O  0.55352981  0.35849901  0.25955544    -0.81800
O14         O  0.44831932  0.56747881  0.27724638    -0.81900
O15         O  0.43446883  0.44848359  0.29093725    -0.81800
O16         O  0.56323370  0.53096010  0.29127060    -0.81800
O17         O  0.54848830  0.59083883  0.26054817    -0.81900
O18         O  0.44558825  0.37414158  0.26438685    -0.81800
O19         O  0.56689667  0.42393922  0.29070807    -0.81800
O20         O  0.36972814  0.52817575  0.27222433    -0.81900
Co21       Co  0.49983739  0.39309876  0.23411450     1.51500
Co22       Co  0.49310698  0.54640024  0.24037369     1.51700
Co23       Co  0.43210408  0.49258672  0.25721802     1.51600
Co24       Co  0.58500820  0.47632813  0.26234064     1.51500
O25         O  0.50870145  0.47008574  0.24849481    -1.43800
C26         C  0.56891456  0.37498141  0.28387852     1.07800
C27         C  0.39765668  0.56541351  0.28343711     1.07900
C28         C  0.43003844  0.39814816  0.28741546     1.07800
C29         C  0.56548224  0.57885299  0.28452561     1.07800
O30         O  0.94628989  0.47812576  0.02997104    -0.81800
O31         O  0.06540169  0.56283493  0.02830982    -0.81800
O32         O  0.05526330  0.44308969  0.01079529    -0.81900
O33         O  0.95074919  0.64949453  0.00341701    -0.81800
O34         O  0.13371611  0.48455793  0.00815862    -0.81900
O35         O  0.94432091  0.58492965  0.03297804    -0.81800
O36         O  0.05956750  0.63581869  0.00374447    -0.81800
O37         O  0.95571777  0.41806515  0.99620926    -0.81900
C38         C  0.94200600  0.43027080  0.02144061     1.07900
C39         C  0.07192186  0.61268676  0.02631553     1.07800
C40         C  0.10444555  0.44848967  0.01857759     1.07900
C41         C  0.93755959  0.63307996  0.02780401     1.07800
O42         O  0.88538988  0.58226433  0.47949722    -0.81800
O43         O  0.09006336  0.46797592  0.45767335    -0.81900
O44         O  0.96187987  0.46690503  0.44449599    -0.81800
O45         O  0.05638073  0.58954724  0.44651732    -0.81800
O46         O  0.11893327  0.57043507  0.47572364    -0.81900
O47         O  0.89376627  0.47521067  0.47486177    -0.81800
O48         O  0.94857947  0.59717959  0.44771715    -0.81800
O49         O  0.03887104  0.39572799  0.45903394    -0.81900
Co50       Co  0.92164572  0.52867576  0.50425474     1.51500
Co51       Co  0.07223806  0.51527888  0.49470730     1.51700
Co52       Co  0.01111288  0.45924466  0.47606223     1.51600
Co53       Co  0.00337704  0.61214119  0.47595445     1.51500
O54         O  0.99590486  0.53512113  0.48729325    -1.43800
C55         C  0.89970869  0.59652171  0.45486263     1.07800
C56         C  0.08088510  0.41843046  0.45010174     1.07900
C57         C  0.91267299  0.45998699  0.45059620     1.07800
C58         C  0.10517047  0.59087053  0.45282010     1.07800
C59         C  0.78720848  0.29784382  0.39023645     0.84800
C60         C  0.74657005  0.31762660  0.36921436    -0.55400
C61         C  0.71509667  0.27856961  0.35724105     0.07700
C62         C  0.72765130  0.22220115  0.36716790     0.18700
C63         C  0.75333494  0.26700990  0.41172384    -0.56200
C64         C  0.72145997  0.22793001  0.39983113     0.07800
C65         C  0.81893313  0.25408377  0.37373449    -0.55700
C66         C  0.78850598  0.21431750  0.36163800     0.08400
H67         H  0.74172157  0.35957446  0.36490403     0.12900
H68         H  0.70192834  0.19074701  0.35726277    -0.01300
H69         H  0.75412468  0.27584345  0.43438444     0.13200
H70         H  0.86207173  0.25362778  0.37158552     0.13000
O71         O  0.43262827  0.06051686  0.49114329    -0.81800
O72         O  0.46388131  0.87404995  0.02980368    -0.81800
O73         O  0.48129248  0.93949530  0.45247691    -0.81900
O74         O  0.43565184  0.06786751  0.04810597    -0.81800
O75         O  0.43116738  0.93855450  0.49055086    -0.81900
O76         O  0.47130655  0.14073067  0.02972688    -0.81800
O77         O  0.43138605  0.95090498  0.04846012    -0.81800
O78         O  0.47851788  0.04772315  0.45176248    -0.81900
C79         C  0.43601195  0.06370741  0.46459815     1.07900
C80         C  0.42888009  0.89913754  0.04496163     1.07800
C81         C  0.43779963  0.92654954  0.46449298     1.07900
C82         C  0.43667931  0.11920930  0.04575826     1.07800
O83         O  0.57124462  0.09555614  0.02946039    -0.81800
O84         O  0.53314323  0.88145764  0.48312278    -0.81900
O85         O  0.59057167  0.05074787  0.46796179    -0.81800
O86         O  0.54071173  0.95591628  0.07002149    -0.81800
O87         O  0.56600618  0.91468265  0.03172527    -0.81900
O88         O  0.53466653  0.11507783  0.47925276    -0.81800
O89         O  0.54622261  0.06174151  0.06862627    -0.81800
O90         O  0.59054844  0.94292865  0.47063030    -0.81900
Co91       Co  0.50030498  0.07478439  0.51150516     1.51500
Co92       Co  0.49760390  0.92924483  0.51315089     1.51700
Co93       Co  0.53489492  0.99579725  0.46389431     1.51600
Co94       Co  0.49194751  0.00865814  0.05281351     1.51500
O95         O  0.52340085  0.00094488  0.50741378    -1.43800
C96         C  0.57904328  0.08974066  0.05510560     1.07800
C97         C  0.57751261  0.89436684  0.47166099     1.07900
C98         C  0.57765851  0.09906002  0.46678500     1.07800
C99         C  0.57181477  0.92326792  0.05760387     1.07800
C100        C  0.23201042  0.80935054  0.35154430     0.84800
C101        C  0.26674135  0.83896791  0.37335765    -0.55400
C102        C  0.29622253  0.80685573  0.38976783     0.07700
C103        C  0.28862111  0.74634255  0.38250518     0.18700
C104        C  0.27045804  0.77224780  0.33438933    -0.56200
C105        C  0.29971117  0.73882701  0.35025432     0.07800
C106        C  0.19827574  0.77017434  0.36892407    -0.55700
C107        C  0.22751818  0.73700879  0.38518052     0.08400
H108        H  0.26773128  0.88221895  0.37572854     0.12900
H109        H  0.31284184  0.71972622  0.39548703    -0.01300
H110        H  0.27055510  0.76838713  0.31143098     0.13200
H111        H  0.15490658  0.76793308  0.36797007     0.13000
O112        O  0.95943935  0.07017685  0.28926168    -0.81800
O113        O  0.05165547  0.95021191  0.28988297    -0.81800
O114        O  0.88067025  0.95243543  0.25964682    -0.81900
O115        O  0.08580807  0.06267554  0.27300482    -0.81800
O116        O  0.94370330  0.94434658  0.29100122    -0.81900
O117        O  0.03998759  0.13813943  0.27184464    -0.81800
O118        O  0.11426137  0.96159997  0.25838797    -0.81800
O119        O  0.89010797  0.05973098  0.26103560    -0.81900
C120        C  0.90950149  0.07455433  0.28491904     1.07900
C121        C  0.10014856  0.94551873  0.28256575     1.07800
C122        C  0.89545945  0.93919118  0.28408845     1.07900
C123        C  0.07920315  0.11214995  0.28115121     1.07800
O124        O  0.05487274  0.08871076  0.21994559    -0.81800
O125        O  0.94438390  0.88617609  0.23643620    -0.81900
O126        O  0.94119293  0.05321529  0.20437771    -0.81800
O127        O  0.06277818  0.96284505  0.20457066    -0.81800
O128        O  0.05243495  0.89635710  0.23358838    -0.81900
O129        O  0.95503760  0.11810939  0.23499560    -0.81800
O130        O  0.13132177  0.04384702  0.22086384    -0.81800
O131        O  0.93464425  0.94642842  0.20459850    -0.81900
Co132      Co  0.00848926  0.07434294  0.25620698     1.51500
Co133      Co  0.99801647  0.92383370  0.26254161     1.51700
Co134      Co  0.91629450  0.00295300  0.23250259     1.51600
Co135      Co  0.06859648  0.01367669  0.23734195     1.51500
O136        O  0.99174404  0.99756148  0.24714430    -1.43800
C137        C  0.10368764  0.08120461  0.21103611     1.07800
C138        C  0.92835379  0.89931274  0.21217794     1.07900
C139        C  0.93748172  0.10198431  0.21107781     1.07800
C140        C  0.06804045  0.91387713  0.20978936     1.07800
C141        C  0.71073177  0.69588261  0.14309049     0.84800
C142        C  0.74918848  0.67476493  0.11950624    -0.55400
C143        C  0.77842651  0.71357439  0.10655699     0.07700
C144        C  0.76624933  0.77030557  0.11816738     0.18700
C145        C  0.74711886  0.72889771  0.16314889    -0.56200
C146        C  0.77693127  0.76714204  0.15016081     0.07800
C147        C  0.67647534  0.73846147  0.12918035    -0.55700
C148        C  0.70510748  0.77714889  0.11612645     0.08400
H149        H  0.75482841  0.63251230  0.11450473     0.12900
H150        H  0.78995340  0.80140626  0.10744759    -0.01300
H151        H  0.74972352  0.72194987  0.18561973     0.13200
H152        H  0.63313960  0.73986419  0.12999050     0.13000
C153        C  0.19337253  0.30574853  0.09957059     0.84800
C154        C  0.22067880  0.33614076  0.12411390    -0.55400
C155        C  0.25115598  0.30509762  0.14044538     0.07700
C156        C  0.25068181  0.24560638  0.13122932     0.18700
C157        C  0.23825916  0.27543138  0.08358604    -0.56200
C158        C  0.26839059  0.24431514  0.09993116     0.07800
C159        C  0.16056550  0.26181762  0.11410315    -0.55700
C160        C  0.19063119  0.23029917  0.13107534     0.08400
H161        H  0.21845270  0.37921932  0.12731453     0.12900
H162        H  0.27619446  0.22119004  0.14466538    -0.01300
H163        H  0.24560806  0.27845581  0.06096703     0.13200
H164        H  0.11783998  0.25636185  0.11168246     0.13000
C165        C  0.82003284  0.29225721  0.09461309     0.84800
C166        C  0.85375988  0.26122808  0.11511574    -0.55400
C167        C  0.82447679  0.23348829  0.13413871     0.07700
C168        C  0.76326370  0.23867076  0.13092966     0.18700
C169        C  0.78188837  0.25045900  0.08094460    -0.56200
C170        C  0.75204193  0.22186281  0.09975247     0.07800
C171        C  0.78281029  0.32716552  0.11372321    -0.55700
C172        C  0.75329601  0.29933641  0.13271391     0.08400
H173        H  0.89732363  0.26117315  0.11463238     0.12900
H174        H  0.74007678  0.21636678  0.14685466    -0.01300
H175        H  0.77573579  0.24627011  0.05842479     0.13200
H176        H  0.77989839  0.37019257  0.11232908     0.13000
C177        C  0.28136715  0.70406122  0.14448573     0.84800
C178        C  0.31411854  0.73910096  0.12480720    -0.55400
C179        C  0.28450971  0.77261884  0.10937168     0.07700
C180        C  0.22373660  0.76837322  0.11489545     0.18700
C181        C  0.24630132  0.74306182  0.16245765    -0.56200
C182        C  0.21579845  0.77643928  0.14711076     0.07800
C183        C  0.24104093  0.67513394  0.12482584    -0.55700
C184        C  0.21070681  0.70878645  0.10944285     0.08400
H185        H  0.35757341  0.73726246  0.12305520     0.12900
H186        H  0.19941551  0.79571856  0.10239597    -0.01300
H187        H  0.24453013  0.74299849  0.18543750     0.13200
H188        H  0.23613175  0.63229649  0.12292720     0.13000
C189        C  0.29655751  0.19979998  0.40012799     0.84800
C190        C  0.33453319  0.23207159  0.38145410    -0.55400
C191        C  0.30969236  0.26489058  0.36339191     0.07700
C192        C  0.24780431  0.26240131  0.36563002     0.18700
C193        C  0.26054040  0.24259198  0.41522042    -0.56200
C194        C  0.23499119  0.27505011  0.39708758     0.07800
C195        C  0.25896300  0.17058597  0.37931752    -0.55700
C196        C  0.23318442  0.20272204  0.36110718     0.08400
H197        H  0.37786031  0.22976243  0.38292912     0.12900
H198        H  0.22741798  0.28915228  0.35107152    -0.01300
H199        H  0.25428840  0.24698154  0.43790523     0.13200
H200        H  0.25252788  0.12780705  0.37971624     0.13000
C201        C  0.76790995  0.79395048  0.35010666     0.84800
C202        C  0.80203400  0.75105951  0.36373932    -0.55400
C203        C  0.77307213  0.71623050  0.37967027     0.07700
C204        C  0.71229035  0.72667316  0.37977916     0.18700
C205        C  0.72693919  0.76138094  0.33287094    -0.56200
C206        C  0.69712951  0.72671618  0.34823099     0.07800
C207        C  0.73600414  0.82001033  0.37469509    -0.55700
C208        C  0.70728759  0.78499078  0.39034442     0.08400
H209        H  0.84543820  0.74972986  0.36198154     0.12900
H210        H  0.68853358  0.69867873  0.39262594    -0.01300
H211        H  0.72373935  0.76311931  0.31008410     0.13200
H212        H  0.73650571  0.86273370  0.37947234     0.13000
C213        C  0.15006999  0.21148477  0.33132222    -0.15000
C214        C  0.19391387  0.18108459  0.33991651     0.07100
C215        C  0.19933337  0.12858911  0.32872460    -0.15000
C216        C  0.16173690  0.10668823  0.31006649    -0.15000
C217        C  0.11762140  0.13663988  0.30164611     0.07100
C218        C  0.11229395  0.18948972  0.31236891    -0.15000
H219        H  0.14424070  0.25187574  0.33960552     0.11100
H220        H  0.23307328  0.10418307  0.33412309     0.11100
H221        H  0.16767699  0.06607050  0.30204718     0.11100
H222        H  0.07890556  0.21371821  0.30621369     0.11100
C223        C  0.17817458  0.11073637  0.17844705    -0.15000
C224        C  0.12555526  0.11633102  0.18905928     0.07100
C225        C  0.09363353  0.15761685  0.17917219    -0.15000
C226        C  0.11419606  0.19343706  0.15986039    -0.15000
C227        C  0.16727167  0.18890148  0.14965591     0.07100
C228        C  0.19873471  0.14653299  0.15891215    -0.15000
H229        H  0.20367155  0.07917906  0.18550304     0.11100
H230        H  0.05283612  0.16322241  0.18687756     0.11100
H231        H  0.08880263  0.22583133  0.15383543     0.11100
H232        H  0.23943797  0.14089980  0.15128256     0.11100
C233        C  0.80782582  0.89452247  0.29407999    -0.15000
C234        C  0.85900879  0.91007353  0.30299596     0.07100
C235        C  0.87793194  0.89162237  0.32872295    -0.15000
C236        C  0.84807671  0.85516227  0.34404436    -0.15000
C237        C  0.79910998  0.83529823  0.33372709     0.07100
C238        C  0.77787850  0.85813978  0.30948047    -0.15000
H239        H  0.79163456  0.90901956  0.27469669     0.11100
H240        H  0.91683080  0.90380719  0.33655746     0.11100
H241        H  0.86401209  0.84162400  0.36367879     0.11100
H242        H  0.73826239  0.84795385  0.30207821     0.11100
C243        C  0.10418054  0.82364751  0.19673325    -0.15000
C244        C  0.09895997  0.87754968  0.19018025     0.07100
C245        C  0.12914229  0.89691797  0.16729312    -0.15000
C246        C  0.16598972  0.86364301  0.15242908    -0.15000
C247        C  0.17363909  0.81094882  0.16053613     0.07100
C248        C  0.14118863  0.79090721  0.18220683    -0.15000
H249        H  0.08122583  0.80714360  0.21398307     0.11100
H250        H  0.12611837  0.93827347  0.16174500     0.11100
H251        H  0.19021716  0.87974471  0.13554435     0.11100
H252        H  0.14513707  0.74993126  0.18829584     0.11100
C253        C  0.86481846  0.88397165  0.17244120    -0.15000
C254        C  0.89481423  0.86298999  0.19442960     0.07100
C255        C  0.88735479  0.80935461  0.20097362    -0.15000
C256        C  0.84954003  0.77791783  0.18637143    -0.15000
C257        C  0.81827749  0.79967827  0.16511720     0.07100
C258        C  0.82694491  0.85273285  0.15803431    -0.15000
H259        H  0.86902247  0.92535969  0.16702137     0.11100
H260        H  0.90981921  0.79209635  0.21775682     0.11100
H261        H  0.84457636  0.73663917  0.19181516     0.11100
H262        H  0.80325582  0.87070710  0.14195468     0.11100
C263        C  0.91135698  0.19296910  0.19480878    -0.15000
C264        C  0.90866903  0.13710274  0.19190554     0.07100
C265        C  0.87625654  0.11377663  0.17058572    -0.15000
C266        C  0.84715561  0.14536329  0.15265969    -0.15000
C267        C  0.85063575  0.20088668  0.15524428     0.07100
C268        C  0.88305521  0.22466401  0.17630858    -0.15000
H269        H  0.93583624  0.21198937  0.21101762     0.11100
H270        H  0.87295315  0.07083479  0.16785422     0.11100
H271        H  0.82300249  0.12645164  0.13625435     0.11100
H272        H  0.88653376  0.26768919  0.17831241     0.11100
C273        C  0.11898879  0.90089806  0.32789454    -0.15000
C274        C  0.13706675  0.91653345  0.30108188     0.07100
C275        C  0.18820355  0.90000936  0.29159769    -0.15000
C276        C  0.21921578  0.86642452  0.30791911    -0.15000
C277        C  0.19945455  0.84758229  0.33391629     0.07100
C278        C  0.14996570  0.86768826  0.34419686    -0.15000
H279        H  0.08016873  0.91358515  0.33617676     0.11100
H280        H  0.20369503  0.91189449  0.27124655     0.11100
H281        H  0.25855832  0.85505346  0.29993876     0.11100
H282        H  0.13455539  0.85723175  0.36478657     0.11100
C283        C  0.71349414  0.15787554  0.06281516    -0.15000
C284        C  0.71021116  0.18207702  0.09018598     0.07100
C285        C  0.66513896  0.17026500  0.10727931    -0.15000
C286        C  0.62340719  0.13767182  0.09664412    -0.15000
C287        C  0.62554589  0.11703000  0.06857981     0.07100
C288        C  0.67151467  0.12670732  0.05206378    -0.15000
H289        H  0.74816070  0.16359946  0.04923232     0.11100
H290        H  0.66072171  0.18789808  0.12840881     0.11100
H291        H  0.58831096  0.13095968  0.10982765     0.11100
H292        H  0.67469491  0.11067734  0.03048880     0.11100
C293        C  0.35890961  0.12855171  0.07957367    -0.15000
C294        C  0.39460118  0.15183822  0.06021085     0.07100
C295        C  0.39011590  0.20643397  0.05526849    -0.15000
C296        C  0.34991404  0.23678520  0.06887547    -0.15000
C297        C  0.31384926  0.21321891  0.08783767     0.07100
C298        C  0.31903434  0.15912015  0.09338945    -0.15000
H299        H  0.36157888  0.08659357  0.08396363     0.11100
H300        H  0.41721860  0.22556519  0.04065517     0.11100
H301        H  0.34665668  0.27869034  0.06443525     0.11100
H302        H  0.29116382  0.14010383  0.10761815     0.11100
C303        C  0.37955100  0.81366638  0.05190807    -0.15000
C304        C  0.38391555  0.86889561  0.05764233     0.07100
C305        C  0.34804373  0.89339987  0.07741855    -0.15000
C306        C  0.31160224  0.86248884  0.09276111    -0.15000
C307        C  0.31080184  0.80687051  0.08852515     0.07100
C308        C  0.34356309  0.78300205  0.06729307    -0.15000
H309        H  0.40594015  0.79356810  0.03656099     0.11100
H310        H  0.35018254  0.93591823  0.08217617     0.11100
H311        H  0.28691302  0.88146236  0.10927165     0.11100
H312        H  0.34343489  0.74006235  0.06376956     0.11100
C313        C  0.59102731  0.81304603  0.44045679    -0.15000
C314        C  0.61260598  0.85505333  0.45717548     0.07100
C315        C  0.66751701  0.86655838  0.45514558    -0.15000
C316        C  0.69926052  0.84056478  0.43459661    -0.15000
C317        C  0.67654348  0.80273560  0.41576129     0.07100
C318        C  0.62305434  0.78687005  0.41970774    -0.15000
H319        H  0.54866103  0.80376718  0.44169169     0.11100
H320        H  0.68501190  0.89847546  0.46808354     0.11100
H321        H  0.74088768  0.85230139  0.43229093     0.11100
H322        H  0.60507773  0.75745420  0.40538892     0.11100
C323        C  0.39542144  0.09057019  0.41910543    -0.15000
C324        C  0.39438006  0.09233855  0.44883148     0.07100
C325        C  0.35751598  0.12669392  0.46305377    -0.15000
C326        C  0.32462292  0.16061137  0.44792357    -0.15000
C327        C  0.32756415  0.16079568  0.41807352     0.07100
C328        C  0.36229314  0.12386302  0.40402726    -0.15000
H329        H  0.42312089  0.06450952  0.40742739     0.11100
H330        H  0.35577424  0.12916523  0.48598513     0.11100
H331        H  0.29817940  0.18710306  0.45994604     0.11100
H332        H  0.36518002  0.12215180  0.38111275     0.11100
C333        C  0.60392033  0.88512674  0.10249742    -0.15000
C334        C  0.61173273  0.89272494  0.07342511     0.07100
C335        C  0.65493700  0.86662287  0.05928215    -0.15000
C336        C  0.68808134  0.83185351  0.07367484    -0.15000
C337        C  0.67774620  0.82159575  0.10223167     0.07100
C338        C  0.63618747  0.84954960  0.11664521    -0.15000
H339        H  0.57097937  0.90444998  0.11397717     0.11100
H340        H  0.66202302  0.87180442  0.03688112     0.11100
H341        H  0.71964982  0.81058254  0.06208881     0.11100
H342        H  0.62753116  0.84241413  0.13871569     0.11100
C343        C  0.34410053  0.89779536  0.45068346    -0.15000
C344        C  0.39984390  0.89164720  0.44829250     0.07100
C345        C  0.42050151  0.85269092  0.42875714    -0.16600
C346        C  0.38649702  0.82198220  0.41125112    -0.15000
C347        C  0.33108592  0.83053314  0.41232651     0.07100
C348        C  0.31010898  0.86809970  0.43253167    -0.15000
H349        H  0.32708738  0.92733905  0.46549926     0.11100
H350        H  0.46336211  0.84675602  0.42659853     0.11100
H351        H  0.40371550  0.79383269  0.39572919     0.11100
H352        H  0.26738769  0.87559638  0.43363013     0.11100
C353        C  0.79128427  0.14936652  0.31937315    -0.15000
C354        C  0.81423737  0.16978668  0.34447646     0.07100
C355        C  0.86571946  0.15204217  0.35150359    -0.15000
C356        C  0.89555376  0.11911660  0.33275506    -0.15000
C357        C  0.87444873  0.10205975  0.30661677     0.07100
C358        C  0.82111464  0.11575275  0.30060405    -0.15000
H359        H  0.75171174  0.16192268  0.31339828     0.11100
H360        H  0.88402633  0.16529954  0.37116373     0.11100
H361        H  0.93601814  0.10867629  0.33834224     0.11100
H362        H  0.80337640  0.10280062  0.28073356     0.11100
C363        C  0.61913313  0.18841530  0.45635921    -0.15000
C364        C  0.61193723  0.13401420  0.44945620     0.07100
C365        C  0.63990997  0.11133851  0.42586295    -0.15000
C366        C  0.67462081  0.14201872  0.40961780    -0.15000
C367        C  0.68308962  0.19601695  0.41682580     0.07100
C368        C  0.65483252  0.21905319  0.44033064    -0.15000
H369        H  0.59825347  0.20680814  0.47445483     0.11100
H370        H  0.63495019  0.06948593  0.41993547     0.11100
H371        H  0.69591217  0.12304551  0.39182693     0.11100
H372        H  0.66001455  0.26087953  0.44618607     0.11100
C373        C  0.17885459  0.41757842  0.04825450    -0.15000
C374        C  0.12532406  0.41343305  0.04015991     0.07100
C375        C  0.09215798  0.37478626  0.05247148    -0.15000
C376        C  0.11255816  0.34025266  0.07221824    -0.15000
C377        C  0.16664597  0.34378749  0.07994491     0.07100
C378        C  0.19915749  0.38326809  0.06781836    -0.15000
H379        H  0.20538004  0.44685924  0.03918588     0.11100
H380        H  0.05049347  0.37079872  0.04662028     0.11100
H381        H  0.08599299  0.31066374  0.08075793     0.11100
H382        H  0.24109840  0.38688077  0.07321069     0.11100
C383        C  0.12763074  0.68995019  0.04351881    -0.15000
C384        C  0.09962583  0.64273403  0.04920776     0.07100
C385        C  0.10362717  0.62114512  0.07605082    -0.15000
C386        C  0.13785105  0.64418936  0.09613370    -0.15000
C387        C  0.16897700  0.68902687  0.08968606     0.07100
C388        C  0.16213990  0.71288834  0.06361449    -0.15000
H389        H  0.12536167  0.70736642  0.02294986     0.11100
H390        H  0.08184771  0.58524486  0.08113819     0.11100
H391        H  0.14114472  0.62596622  0.11643772     0.11100
H392        H  0.18565228  0.74744796  0.05812058     0.11100
C393        C  0.90524739  0.64934116  0.07732304    -0.15000
C394        C  0.90647487  0.66559629  0.04913855     0.07100
C395        C  0.86909635  0.70374984  0.04100347    -0.15000
C396        C  0.82856149  0.72165707  0.06009822    -0.15000
C397        C  0.82457621  0.70094828  0.08728037     0.07100
C398        C  0.86454941  0.66645543  0.09607031    -0.15000
H399        H  0.93374255  0.62032001  0.08432540     0.11100
H400        H  0.86869026  0.71656779  0.01938396     0.11100
H401        H  0.79850644  0.74900750  0.05309004     0.11100
H402        H  0.86314970  0.65121986  0.11721922     0.11100
C403        C  0.12825232  0.63051960  0.40663823    -0.15000
C404        C  0.14302681  0.62058306  0.43450947     0.07100
C405        C  0.18967919  0.64522617  0.44522790    -0.15000
C406        C  0.21887819  0.68154282  0.42887018    -0.15000
C407        C  0.20167211  0.69388440  0.40165595     0.07100
C408        C  0.15715701  0.66643818  0.39046427    -0.15000
H409        H  0.09291646  0.61184588  0.39759557     0.11100
H410        H  0.20185277  0.63869496  0.46671170     0.11100
H411        H  0.25316516  0.70192653  0.43801723     0.11100
H412        H  0.14375984  0.67367236  0.36927436     0.11100
C413        C  0.87607665  0.62113950  0.40614866    -0.15000
C414        C  0.86086281  0.61760559  0.43479369     0.07100
C415        C  0.81218904  0.64064358  0.44420421    -0.15000
C416        C  0.78154499  0.67017955  0.42572244    -0.15000
C417        C  0.79924496  0.67700812  0.39766244     0.07100
C418        C  0.84569691  0.65054016  0.38783080    -0.15000
H419        H  0.91300846  0.60316823  0.39815287     0.11100
H420        H  0.79962735  0.63874922  0.46618467     0.11100
H421        H  0.74598968  0.69048686  0.43389683     0.11100
H422        H  0.85969138  0.65428833  0.36618703     0.11100
C423        C  0.14075484  0.30667492  0.40372256    -0.15000
C424        C  0.19575461  0.31605570  0.40703334     0.07100
C425        C  0.21269402  0.36269122  0.42164157    -0.15000
C426        C  0.17500587  0.39847940  0.43378912    -0.15000
C427        C  0.11982582  0.38741860  0.43209968     0.07100
C428        C  0.10308290  0.34174288  0.41638740    -0.15000
H429        H  0.12698975  0.27078499  0.39258622     0.11100
H430        H  0.25505406  0.37053775  0.42434305     0.11100
H431        H  0.18907434  0.43301709  0.44600143     0.11100
H432        H  0.06085522  0.33213889  0.41477787     0.11100
C433        C  0.91565033  0.40027020  0.06933976    -0.15000
C434        C  0.91702901  0.39099945  0.03990593     0.07100
C435        C  0.88991754  0.34668038  0.02814100    -0.15000
C436        C  0.85926523  0.31386332  0.04536003    -0.15000
C437        C  0.85509674  0.32474133  0.07484783     0.07100
C438        C  0.88559164  0.36716549  0.08660440    -0.15000
H439        H  0.93689630  0.43386539  0.07896085     0.11100
H440        H  0.89071559  0.33853468  0.00545847     0.11100
H441        H  0.83934998  0.28041171  0.03510506     0.11100
H442        H  0.88480033  0.37567073  0.10924965     0.11100
C443        C  0.79458784  0.38013465  0.42288731    -0.15000
C444        C  0.81986647  0.34376578  0.40358141     0.07100
C445        C  0.87447510  0.35241507  0.39681566    -0.15000
C446        C  0.90366398  0.39271712  0.41076022    -0.15000
C447        C  0.87922544  0.42592995  0.43167872     0.07100
C448        C  0.82399129  0.42027378  0.43702655    -0.15000
H449        H  0.75224687  0.37624070  0.42780129     0.11100
H450        H  0.89570701  0.32876481  0.38081312     0.11100
H451        H  0.94609452  0.39628512  0.40596034     0.11100
H452        H  0.80385708  0.44565421  0.45289057     0.11100
C453        C  0.61614736  0.60343053  0.32840892    -0.15000
C454        C  0.59193981  0.61883715  0.30330235     0.07100
C455        C  0.59764040  0.67161320  0.29501728    -0.15000
C456        C  0.62938874  0.70744911  0.31060702    -0.15000
C457        C  0.65671301  0.69108971  0.33461466     0.07100
C458        C  0.64836118  0.63925191  0.34390941    -0.15000
H459        H  0.61227375  0.56295008  0.33537571     0.11100
H460        H  0.57907552  0.68477204  0.27593978     0.11100
H461        H  0.63365588  0.74767640  0.30335464     0.11100
H462        H  0.66893890  0.62535500  0.36220964     0.11100
C463        C  0.41855625  0.31428250  0.31356768    -0.15000
C464        C  0.40189984  0.36653470  0.30892114     0.07100
C465        C  0.35474844  0.38564093  0.32245017    -0.15000
C466        C  0.32412899  0.35245275  0.33976566    -0.15000
C467        C  0.34077625  0.30002732  0.34431868     0.07100
C468        C  0.38867250  0.28160608  0.33125377    -0.15000
H469        H  0.45450114  0.29850074  0.30320916     0.11100
H470        H  0.34061195  0.42555130  0.31881884     0.11100
H471        H  0.28779528  0.36793642  0.34981431     0.11100
H472        H  0.40246470  0.24133626  0.33418215     0.11100
C473        C  0.62359370  0.34426620  0.16809489    -0.15000
C474        C  0.64180934  0.37899158  0.19004890     0.07100
C475        C  0.69724633  0.38719900  0.19290554    -0.15000
C476        C  0.73359426  0.36130820  0.17417431    -0.15000
C477        C  0.71513793  0.32590104  0.15276103     0.07100
C478        C  0.66000547  0.31756756  0.14980355    -0.15000
H479        H  0.58116391  0.33687803  0.16538645     0.11100
H480        H  0.71245169  0.41369456  0.20955585     0.11100
H481        H  0.77616245  0.36840356  0.17654336     0.11100
H482        H  0.64516077  0.29090948  0.13312002     0.11100
C483        C  0.38847830  0.66985324  0.19760489    -0.15000
C484        C  0.39023850  0.61392744  0.19600076     0.07100
C485        C  0.35589847  0.58631064  0.17724722    -0.15000
C486        C  0.32040344  0.61422433  0.16045529    -0.15000
C487        C  0.31801014  0.67053004  0.16238169     0.07100
C488        C  0.35292872  0.69760234  0.18113936    -0.15000
H489        H  0.41404578  0.69235417  0.21203615     0.11100
H490        H  0.35655785  0.54312506  0.17552248     0.11100
H491        H  0.29559214  0.59109608  0.14609901     0.11100
H492        H  0.35267146  0.74078243  0.18303473     0.11100
C493        C  0.59625535  0.60499954  0.16978447    -0.15000
C494        C  0.62216362  0.57537401  0.19012411     0.07100
C495        C  0.67796862  0.58132171  0.19279707    -0.15000
C496        C  0.70644513  0.61817691  0.17662232    -0.15000
C497        C  0.67976731  0.65131329  0.15793656     0.07100
C498        C  0.62449342  0.64209094  0.15388331    -0.15000
H499        H  0.55344958  0.60104607  0.16681938     0.11100
H500        H  0.69942160  0.55865384  0.20801978     0.11100
H501        H  0.74921304  0.62237091  0.17959927     0.11100
H502        H  0.60209716  0.66311673  0.13852888     0.11100
C503        C  0.62847372  0.29715229  0.29332334    -0.15000
C504        C  0.59549020  0.33933129  0.30350174     0.07100
C505        C  0.59613598  0.35405283  0.33244857    -0.15000
C506        C  0.63253633  0.33090083  0.35030575    -0.15000
C507        C  0.66898648  0.29240975  0.33965929     0.07100
C508        C  0.66515180  0.27374479  0.31138374    -0.15000
H509        H  0.62904229  0.28537595  0.27103340     0.11100
H510        H  0.57088625  0.38610853  0.34090376     0.11100
H511        H  0.63448891  0.34538929  0.37216284     0.11100
H512        H  0.69308864  0.24416647  0.30280158     0.11100
C513        C  0.40493637  0.64341929  0.31866365    -0.15000
C514        C  0.37296948  0.60624982  0.30334068     0.07100
C515        C  0.31693725  0.61108612  0.30559091    -0.15000
C516        C  0.29353869  0.65298600  0.32183727    -0.15000
C517        C  0.32545933  0.69078287  0.33651850     0.07100
C518        C  0.38134816  0.68510512  0.33524652    -0.15000
H519        H  0.44823844  0.64101721  0.31731656     0.11100
H520        H  0.29110125  0.58358473  0.29396012     0.11100
H521        H  0.25029078  0.65682641  0.32237109     0.11100
H522        H  0.40671845  0.71409279  0.34613398     0.11100
C523        C  0.30406025  0.39772714  0.19857836    -0.15000
C524        C  0.35867277  0.38468315  0.19758926     0.07100
C525        C  0.37637490  0.34187205  0.17980360    -0.15000
C526        C  0.34048397  0.31380576  0.16250097    -0.15000
C527        C  0.28649795  0.32869861  0.16230248     0.07100
C528        C  0.26826077  0.37028901  0.18076956    -0.15000
H529        H  0.28949083  0.43023784  0.21233020     0.11100
H530        H  0.41821971  0.33045669  0.17903459     0.11100
H531        H  0.35548463  0.28226761  0.14822892     0.11100
H532        H  0.22657551  0.38221300  0.18094374     0.11100
O533        O  0.44761864  0.42059695  0.70912128    -0.81800
O534        O  0.53847073  0.54221444  0.70979772    -0.81800
O535        O  0.41605337  0.53935498  0.72526407    -0.81900
O536        O  0.61926811  0.42576536  0.73714167    -0.81800
O537        O  0.46312442  0.61367889  0.73074375    -0.81900
O538        O  0.55497869  0.40948648  0.70668720    -0.81800
O539        O  0.61001408  0.53336637  0.73624802    -0.81800
O540        O  0.38554769  0.44011037  0.74047378    -0.81900
C541        C  0.39923554  0.41882860  0.71673621     1.07900
C542        C  0.58855597  0.54791319  0.71338159     1.07800
C543        C  0.42364444  0.58911357  0.71990318     1.07900
C544        C  0.60387253  0.40835684  0.71288510     1.07800
O545        O  0.55383424  0.36210825  0.76156848    -0.81800
O546        O  0.44799588  0.56884633  0.78119272    -0.81900
O547        O  0.43653235  0.44847486  0.79365391    -0.81800
O548        O  0.56250804  0.53379376  0.79420783    -0.81800
O549        O  0.54712261  0.59421682  0.76393404    -0.81900
O550        O  0.44608410  0.37598121  0.76567311    -0.81800
O551        O  0.56653526  0.42744007  0.79289974    -0.81800
O552        O  0.36983866  0.52812104  0.77716542    -0.81900
Co553      Co  0.50065241  0.39693568  0.73601067     1.51500
Co554      Co  0.49202976  0.54970963  0.74383381     1.51700
Co555      Co  0.43220398  0.49429470  0.76084505     1.51600
Co556      Co  0.58485911  0.48001611  0.76493341     1.51500
O557        O  0.50874988  0.47344035  0.75109601    -1.43800
C558        C  0.56809733  0.37850321  0.78611097     1.07800
C559        C  0.39777830  0.56560749  0.78820323     1.07900
C560        C  0.43129009  0.39851871  0.78919775     1.07800
C561        C  0.56356221  0.58194653  0.78793474     1.07800
O562        O  0.94697147  0.47510291  0.53029858    -0.81800
O563        O  0.06517686  0.56058436  0.52945002    -0.81800
O564        O  0.05698638  0.44045925  0.51115217    -0.81900
O565        O  0.94947580  0.64638187  0.50439830    -0.81800
O566        O  0.13446842  0.48372993  0.50909552    -0.81900
O567        O  0.94269340  0.58114352  0.53345184    -0.81800
O568        O  0.05915330  0.63368821  0.50509403    -0.81800
O569        O  0.95776512  0.41421832  0.49703526    -0.81900
C570        C  0.94387236  0.42694201  0.52224188     1.07900
C571        C  0.07266247  0.61024816  0.52742171     1.07800
C572        C  0.10583930  0.44696784  0.51929741     1.07900
C573        C  0.93575733  0.62935276  0.52854362     1.07800
O574        O  0.88641167  0.58637724  0.97924091    -0.81800
O575        O  0.08894107  0.46822046  0.95681059    -0.81900
O576        O  0.96102030  0.47057636  0.94395835    -0.81800
O577        O  0.05689062  0.59084440  0.94548261    -0.81800
O578        O  0.11912129  0.57134517  0.97482345    -0.81900
O579        O  0.89329989  0.48007408  0.97455309    -0.81800
O580        O  0.94896137  0.59918741  0.94682101    -0.81800
O581        O  0.03577187  0.39779496  0.95932797    -0.81900
Co582      Co  0.92202735  0.53257755  0.00397822     1.51500
Co583      Co  0.07194367  0.51684509  0.99375785     1.51700
Co584      Co  0.00989560  0.46218007  0.97561492     1.51600
Co585      Co  0.00398572  0.61442184  0.97481854     1.51500
O586        O  0.99592547  0.53795865  0.98662778    -1.43800
C587        C  0.90027906  0.59924801  0.95430867     1.07800
C588        C  0.07841666  0.41850774  0.95000103     1.07900
C589        C  0.91167965  0.46490973  0.95016746     1.07800
C590        C  0.10560806  0.59208264  0.95198309     1.07800
C591        C  0.78573767  0.30238555  0.89181926     0.84800
C592        C  0.74567094  0.32185117  0.87052376    -0.55400
C593        C  0.71410904  0.28272205  0.85874789     0.07700
C594        C  0.72659549  0.22655167  0.86882061     0.18700
C595        C  0.75145811  0.27196440  0.91331395    -0.56200
C596        C  0.72001617  0.23282119  0.90131853     0.07800
C597        C  0.81790916  0.25834699  0.87579288    -0.55700
C598        C  0.78748545  0.21859662  0.86361770     0.08400
H599        H  0.74082768  0.36378090  0.86615040     0.12900
H600        H  0.70095610  0.19480430  0.85908759    -0.01300
H601        H  0.75164203  0.28076110  0.93599051     0.13200
H602        H  0.86122460  0.25789736  0.87417240     0.13000
O603        O  0.43396891  0.06536738  0.99220105    -0.81800
O604        O  0.46301792  0.87170318  0.53043811    -0.81800
O605        O  0.48189005  0.94573947  0.95271176    -0.81900
O606        O  0.43712957  0.06613910  0.54885437    -0.81800
O607        O  0.43174464  0.94155002  0.99071719    -0.81900
O608        O  0.46902987  0.13783749  0.52766593    -0.81800
O609        O  0.43200832  0.94909564  0.54910075    -0.81800
O610        O  0.47982750  0.05305057  0.95278531    -0.81900
C611        C  0.43715036  0.06831172  0.96565200     1.07900
C612        C  0.42910973  0.89725918  0.54611614     1.07800
C613        C  0.43789104  0.93307261  0.96432592     1.07900
C614        C  0.43658945  0.11714296  0.54518339     1.07800
O615        O  0.56883438  0.09493616  0.52812716    -0.81800
O616        O  0.53367983  0.88598578  0.98303170    -0.81900
O617        O  0.59160802  0.05525716  0.96981448    -0.81800
O618        O  0.54186739  0.95318598  0.56952737    -0.81800
O619        O  0.56580880  0.91106117  0.53129880    -0.81900
O620        O  0.53570761  0.11942389  0.98087539    -0.81800
O621        O  0.54954894  0.05835603  0.56737349    -0.81800
O622        O  0.59122515  0.94785726  0.97139732    -0.81900
Co623      Co  0.50188642  0.07807408  0.01273441     1.51500
Co624      Co  0.49801179  0.93245623  0.01336495     1.51700
Co625      Co  0.53585620  0.00082793  0.96478145     1.51600
Co626      Co  0.49350087  0.00614855  0.55250146     1.51500
O627        O  0.52347175  0.00425163  0.00807503    -1.43800
C628        C  0.57897415  0.08925321  0.55355330     1.07800
C629        C  0.57842253  0.89926852  0.97219266     1.07900
C630        C  0.57865257  0.10347679  0.96844106     1.07800
C631        C  0.57222615  0.91995927  0.55710573     1.07800
C632        C  0.23127646  0.81053901  0.85070408     0.84800
C633        C  0.26599988  0.84285528  0.87134143    -0.55400
C634        C  0.29549647  0.81348939  0.88910460     0.07700
C635        C  0.28722987  0.75228313  0.88450763     0.18700
C636        C  0.27013644  0.77124999  0.83516767    -0.56200
C637        C  0.29898253  0.74036776  0.85263774     0.07800
C638        C  0.19721199  0.77421718  0.86945303    -0.55700
C639        C  0.22610541  0.74311589  0.88697116     0.08400
H640        H  0.26716728  0.88620125  0.87178808     0.12900
H641        H  0.31124003  0.72756264  0.89859023    -0.01300
H642        H  0.27114962  0.76372042  0.81243880     0.13200
H643        H  0.15384810  0.77195219  0.86813014     0.13000
O644        O  0.95751178  0.07310721  0.79141509    -0.81800
O645        O  0.04970404  0.95283796  0.79141109    -0.81800
O646        O  0.87801930  0.95628222  0.76125851    -0.81900
O647        O  0.08457091  0.06546004  0.77344381    -0.81800
O648        O  0.94074135  0.94847699  0.79281977    -0.81900
O649        O  0.03815175  0.14084487  0.77372243    -0.81800
O650        O  0.11092609  0.96389879  0.75899357    -0.81800
O651        O  0.88779387  0.06316996  0.76338441    -0.81900
C652        C  0.90749515  0.07772465  0.78723032     1.07900
C653        C  0.09781513  0.94779758  0.78329391     1.07800
C654        C  0.89264257  0.94287200  0.78565380     1.07900
C655        C  0.07822374  0.11481920  0.78197842     1.07800
O656        O  0.05290630  0.09243671  0.72172064    -0.81800
O657        O  0.94099349  0.89018815  0.73819675    -0.81900
O658        O  0.93753393  0.05793308  0.70662835    -0.81800
O659        O  0.05876876  0.96398355  0.70564265    -0.81800
O660        O  0.04870959  0.89852888  0.73531784    -0.81900
O661        O  0.95268320  0.12189054  0.73767243    -0.81800
O662        O  0.12807155  0.04506103  0.72127060    -0.81800
O663        O  0.93051281  0.95035468  0.70622514    -0.81900
Co664      Co  0.00638657  0.07742234  0.75812186     1.51500
Co665      Co  0.99493598  0.92720806  0.76431147     1.51700
Co666      Co  0.91323140  0.00690712  0.73441410     1.51600
Co667      Co  0.06548597  0.01595032  0.73808308     1.51500
O668        O  0.98899546  0.00087138  0.74870780    -1.43800
C669        C  0.10148198  0.08406035  0.71243387     1.07800
C670        C  0.92503141  0.90306884  0.71385864     1.07900
C671        C  0.93341279  0.10634352  0.71407919     1.07800
C672        C  0.06418388  0.91514381  0.71129949     1.07800
C673        C  0.71054465  0.69604333  0.64470719     0.84800
C674        C  0.74851892  0.67390812  0.62120780    -0.55400
C675        C  0.77810739  0.71199485  0.60791111     0.07700
C676        C  0.76667941  0.76914569  0.61914035     0.18700
C677        C  0.74731532  0.72920168  0.66448323    -0.56200
C678        C  0.77748849  0.76688163  0.65121604     0.07800
C679        C  0.67664041  0.73851978  0.63058660    -0.55700
C680        C  0.70557916  0.77642275  0.61713628     0.08400
H681        H  0.75342134  0.63148758  0.61642195     0.12900
H682        H  0.79053155  0.79961627  0.60803535    -0.01300
H683        H  0.74943975  0.72300339  0.68704327     0.13200
H684        H  0.63332109  0.74037238  0.63145088     0.13000
C685        C  0.19623941  0.30722180  0.60146476     0.84800
C686        C  0.22460731  0.33756055  0.62567433    -0.55400
C687        C  0.25526071  0.30638029  0.64182291     0.07700
C688        C  0.25384122  0.24670352  0.63288155     0.18700
C689        C  0.24031698  0.27619841  0.58522422    -0.56200
C690        C  0.27074782  0.24471417  0.60133688     0.07800
C691        C  0.16334792  0.26412334  0.61650363    -0.55700
C692        C  0.19337426  0.23253601  0.63339241     0.08400
H693        H  0.22261517  0.38063391  0.62897573     0.12900
H694        H  0.27922242  0.22209753  0.64631790    -0.01300
H695        H  0.24670895  0.27900724  0.56252876     0.13200
H696        H  0.12035774  0.25970198  0.61478579     0.13000
C697        C  0.82051211  0.29246271  0.59663274     0.84800
C698        C  0.85139445  0.26196170  0.61837311    -0.55400
C699        C  0.81976748  0.23502011  0.63679582     0.07700
C700        C  0.75892736  0.24074317  0.63169749     0.18700
C701        C  0.78373303  0.25055074  0.58227213    -0.56200
C702        C  0.75033834  0.22391448  0.60021464     0.07800
C703        C  0.78177566  0.32843451  0.61446427    -0.55700
C704        C  0.75015054  0.30163154  0.63306748     0.08400
H705        H  0.89489925  0.26184658  0.61919860     0.12900
H706        H  0.73326793  0.21936397  0.64697592    -0.01300
H707        H  0.78256059  0.24355152  0.55964219     0.13200
H708        H  0.78009485  0.37148537  0.61289328     0.13000
C709        C  0.27962457  0.70479304  0.64786586     0.84800
C710        C  0.31290276  0.74037351  0.62867694    -0.55400
C711        C  0.28376193  0.77325513  0.61265122     0.07700
C712        C  0.22259849  0.76746347  0.61701667     0.18700
C713        C  0.24283133  0.74309440  0.66509291    -0.56200
C714        C  0.21223507  0.77550772  0.64922029     0.07800
C715        C  0.24147377  0.67472889  0.62742123    -0.55700
C716        C  0.21154712  0.70740304  0.61131014     0.08400
H717        H  0.35643801  0.73918397  0.62756906     0.12900
H718        H  0.19849861  0.79391775  0.60389254    -0.01300
H719        H  0.24042335  0.74347142  0.68806943     0.13200
H720        H  0.23824906  0.63177202  0.62514211     0.13000
C721        C  0.29560517  0.20012225  0.90060728     0.84800
C722        C  0.33419594  0.23302033  0.88261022    -0.55400
C723        C  0.30986162  0.26616753  0.86458476     0.07700
C724        C  0.24811389  0.26373251  0.86616183     0.18700
C725        C  0.25847599  0.24199693  0.91559727    -0.56200
C726        C  0.23393733  0.27522276  0.89752544     0.07800
C727        C  0.25905231  0.17131961  0.87910839    -0.55700
C728        C  0.23392263  0.20410709  0.86095856     0.08400
H729        H  0.37750084  0.23045478  0.88420864     0.12900
H730        H  0.22823071  0.29085945  0.85159452    -0.01300
H731        H  0.25019708  0.24491100  0.93815148     0.13200
H732        H  0.25268400  0.12848010  0.87898213     0.13000
C733        C  0.76564586  0.79556344  0.85041233     0.84800
C734        C  0.80019507  0.75196607  0.86306410    -0.55400
C735        C  0.77205301  0.71791873  0.87984420     0.07700
C736        C  0.71164386  0.72981296  0.88171391     0.18700
C737        C  0.72198952  0.76408571  0.83448867    -0.56200
C738        C  0.69320854  0.73026837  0.85081629     0.07800
C739        C  0.73685727  0.82243458  0.87585888    -0.55700
C740        C  0.70892509  0.78815482  0.89229415     0.08400
H741        H  0.84344628  0.75021234  0.86030127     0.12900
H742        H  0.68849413  0.70230766  0.89513988    -0.01300
H743        H  0.71615291  0.76510439  0.81187895     0.13200
H744        H  0.73821690  0.86523102  0.88034934     0.13000
C745        C  0.15039189  0.21338358  0.83185415    -0.15000
C746        C  0.19511890  0.18328052  0.83943824     0.07100
C747        C  0.20140657  0.13162946  0.82726574    -0.15000
C748        C  0.16334764  0.10992745  0.80881173    -0.15000
C749        C  0.11794371  0.13931260  0.80169165     0.07100
C750        C  0.11218646  0.19163564  0.81312043    -0.15000
H751        H  0.14398978  0.25310210  0.84100608     0.11100
H752        H  0.23590957  0.10767101  0.83197578     0.11100
H753        H  0.16967629  0.06982722  0.80010563     0.11100
H754        H  0.07787858  0.21546483  0.80788759     0.11100
C755        C  0.17662518  0.11225584  0.67991564    -0.15000
C756        C  0.12472377  0.12012618  0.69125356     0.07100
C757        C  0.09522940  0.16435307  0.68288210    -0.15000
C758        C  0.11717589  0.20012855  0.66391865    -0.15000
C759        C  0.16921529  0.19262169  0.65259116     0.07100
C760        C  0.19860497  0.14811689  0.66080870    -0.15000
H761        H  0.20040845  0.07861312  0.68594914     0.11100
H762        H  0.05527082  0.17199119  0.69135832     0.11100
H763        H  0.09364690  0.23451020  0.65881534     0.11100
H764        H  0.23857220  0.14070488  0.65246699     0.11100
C765        C  0.80810466  0.89209941  0.79288874    -0.15000
C766        C  0.85621501  0.91240548  0.80377450     0.07100
C767        C  0.87263434  0.89709278  0.83055592    -0.15000
C768        C  0.84296053  0.85982925  0.84541506    -0.15000
C769        C  0.79677203  0.83625978  0.83364582     0.07100
C770        C  0.77852032  0.85477278  0.80768779    -0.15000
H771        H  0.79412520  0.90365650  0.77242872     0.11100
H772        H  0.90935496  0.91260476  0.83965133     0.11100
H773        H  0.85670962  0.84856362  0.86596420     0.11100
H774        H  0.74126592  0.84146814  0.79855250     0.11100
C775        C  0.10280379  0.82501488  0.70002837    -0.15000
C776        C  0.09512818  0.87784750  0.69203146     0.07100
C777        C  0.12268760  0.89534268  0.66782073    -0.15000
C778        C  0.15927392  0.86151973  0.65298986    -0.15000
C779        C  0.16937245  0.81004632  0.66237123     0.07100
C780        C  0.13939455  0.79174227  0.68548736    -0.15000
H781        H  0.08206920  0.80978247  0.71835479     0.11100
H782        H  0.11778154  0.93579324  0.66110243     0.11100
H783        H  0.18153812  0.87649768  0.63509873     0.11100
H784        H  0.14495526  0.75173383  0.69274263     0.11100
C785        C  0.86597102  0.88446047  0.67237189    -0.15000
C786        C  0.89283744  0.86563163  0.69598628     0.07100
C787        C  0.88345156  0.81303595  0.70393409    -0.15000
C788        C  0.84677543  0.78062263  0.68911925    -0.15000
C789        C  0.81838599  0.80027986  0.66619153     0.07100
C790        C  0.82911219  0.85224859  0.65773288    -0.15000
H791        H  0.87179082  0.92498867  0.66579137     0.11100
H792        H  0.90342974  0.79736761  0.72200462     0.11100
H793        H  0.84045115  0.74023967  0.69577071     0.11100
H794        H  0.80766553  0.86886849  0.64041963     0.11100
C795        C  0.91217824  0.19632296  0.69541074    -0.15000
C796        C  0.90157995  0.14153869  0.69650137     0.07100
C797        C  0.85991796  0.11925851  0.68005660    -0.15000
C798        C  0.83077590  0.15061167  0.66200439    -0.15000
C799        C  0.84360399  0.20450472  0.65956755     0.07100
C800        C  0.88383634  0.22747176  0.67675091    -0.15000
H801        H  0.94369950  0.21444627  0.70803603     0.11100
H802        H  0.85029253  0.07720211  0.68089320     0.11100
H803        H  0.80015641  0.13217788  0.64886935     0.11100
H804        H  0.89413163  0.26925017  0.67518567     0.11100
C805        C  0.12521042  0.91169533  0.82964090    -0.15000
C806        C  0.13552879  0.91752540  0.80061549     0.07100
C807        C  0.17859833  0.88932254  0.78783587    -0.15000
C808        C  0.20946275  0.85458570  0.80348534    -0.15000
C809        C  0.19810953  0.84716366  0.83246303     0.07100
C810        C  0.15648378  0.87768460  0.84537566    -0.15000
H811        H  0.09239447  0.93303150  0.84015633     0.11100
H812        H  0.18744416  0.89284507  0.76547104     0.11100
H813        H  0.24241169  0.83447072  0.79262577     0.11100
H814        H  0.14756779  0.87454369  0.86775203     0.11100
C815        C  0.68626200  0.19503912  0.56192631    -0.15000
C816        C  0.70647429  0.18775156  0.58916781     0.07100
C817        C  0.68367559  0.14684468  0.60519623    -0.15000
C818        C  0.64235784  0.11401778  0.59398497    -0.15000
C819        C  0.62349383  0.12124544  0.56644479     0.07100
C820        C  0.64638581  0.16208523  0.55070135    -0.15000
H821        H  0.69999623  0.22725540  0.54909264     0.11100
H822        H  0.69790505  0.13987973  0.62623737     0.11100
H823        H  0.62536192  0.08306547  0.60675328     0.11100
H824        H  0.63251271  0.16977120  0.52963778     0.11100
C825        C  0.36364401  0.12918121  0.58205813    -0.15000
C826        C  0.39539327  0.15040986  0.56025417     0.07100
C827        C  0.38797726  0.20381657  0.55345531    -0.15000
C828        C  0.34861854  0.23474212  0.56748709    -0.15000
C829        C  0.31594961  0.21311832  0.58874062     0.07100
C830        C  0.32447882  0.16036358  0.59626608    -0.15000
H831        H  0.36881010  0.08828863  0.58804408     0.11100
H832        H  0.41210148  0.22156168  0.53703251     0.11100
H833        H  0.34344378  0.27566090  0.56154741     0.11100
H834        H  0.29970270  0.14265575  0.61239614     0.11100
C835        C  0.38027603  0.81200121  0.55508109    -0.15000
C836        C  0.38491341  0.86744490  0.56003175     0.07100
C837        C  0.34975376  0.89271782  0.57994672    -0.15000
C838        C  0.31308880  0.86260405  0.59570157    -0.15000
C839        C  0.31116362  0.80691563  0.59176290     0.07100
C840        C  0.34401117  0.78216211  0.57082419    -0.15000
H841        H  0.40634364  0.79115747  0.53985842     0.11100
H842        H  0.35228869  0.93534091  0.58429379     0.11100
H843        H  0.28871551  0.88230642  0.61211277     0.11100
H844        H  0.34345642  0.73915046  0.56766365     0.11100
C845        C  0.59381185  0.81620522  0.94283109    -0.15000
C846        C  0.61442546  0.86027953  0.95828224     0.07100
C847        C  0.66888980  0.87343142  0.95559704    -0.15000
C848        C  0.70091312  0.84686879  0.93541761    -0.15000
C849        C  0.67888047  0.80678092  0.91770515     0.07100
C850        C  0.62612264  0.78941280  0.92250996    -0.15000
H851        H  0.55177343  0.80571160  0.94457448     0.11100
H852        H  0.68568598  0.90692267  0.96764769     0.11100
H853        H  0.74203140  0.85980577  0.93247593     0.11100
H854        H  0.60864105  0.75832368  0.90903160     0.11100
C855        C  0.39419189  0.09137238  0.92018650    -0.15000
C856        C  0.39471655  0.09545773  0.94987606     0.07100
C857        C  0.35855825  0.13065864  0.96395967    -0.15000
C858        C  0.32486200  0.16332329  0.94864077    -0.15000
C859        C  0.32626524  0.16134683  0.91874782     0.07100
C860        C  0.36031816  0.12355122  0.90490837    -0.15000
H861        H  0.42135450  0.06448554  0.90867071     0.11100
H862        H  0.35818425  0.13494375  0.98685680     0.11100
H863        H  0.29953437  0.19101069  0.96058079     0.11100
H864        H  0.36226167  0.12047453  0.88198980     0.11100
C865        C  0.60516332  0.88405821  0.60230265    -0.15000
C866        C  0.61200126  0.88942605  0.57298184     0.07100
C867        C  0.65423052  0.86169159  0.55889395    -0.15000
C868        C  0.68757181  0.82776832  0.57369542    -0.15000
C869        C  0.67841009  0.82009718  0.60262494     0.07100
C870        C  0.63762928  0.84938466  0.61687969    -0.15000
H871        H  0.57291109  0.90460291  0.61374441     0.11100
H872        H  0.66046761  0.86505762  0.53629894     0.11100
H873        H  0.71836054  0.80517249  0.56222636     0.11100
H874        H  0.62972878  0.84398702  0.63919645     0.11100
C875        C  0.36477310  0.86331345  0.95695285    -0.15000
C876        C  0.39767073  0.90420210  0.94652551     0.07100
C877        C  0.39770073  0.91292612  0.91735589    -0.16600
C878        C  0.36598399  0.88202103  0.89903250    -0.15000
C879        C  0.33318679  0.84103931  0.90914221     0.07100
C880        C  0.33296806  0.83169685  0.93832877    -0.15000
H881        H  0.36477310  0.85492430  0.97926443     0.11100
H882        H  0.42289041  0.94364046  0.90856566     0.11100
H883        H  0.36701383  0.89029796  0.87669846     0.11100
H884        H  0.30749710  0.80086263  0.94673990     0.11100
C885        C  0.79052839  0.15514963  0.82097850    -0.15000
C886        C  0.81281676  0.17388370  0.84656306     0.07100
C887        C  0.86318534  0.15422194  0.85417608    -0.15000
C888        C  0.89275322  0.12064161  0.83556198    -0.15000
C889        C  0.87250321  0.10535995  0.80893698     0.07100
C890        C  0.82008858  0.12120652  0.80232430    -0.15000
H891        H  0.75182371  0.16934705  0.81456030     0.11100
H892        H  0.88084368  0.16659268  0.87415625     0.11100
H893        H  0.93245437  0.10847460  0.84157571     0.11100
H894        H  0.80299223  0.10977646  0.78206110     0.11100
C895        C  0.61299508  0.19401953  0.95499421    -0.15000
C896        C  0.61272511  0.13829637  0.95103874     0.07100
C897        C  0.64651332  0.11453759  0.93000410    -0.15000
C898        C  0.68033898  0.14550052  0.91353279    -0.15000
C899        C  0.68204840  0.20082962  0.91808411     0.07100
C900        C  0.64795920  0.22506191  0.93882653    -0.15000
H901        H  0.58721195  0.21331283  0.97091284     0.11100
H902        H  0.64679944  0.07168127  0.92619854     0.11100
H903        H  0.70622154  0.12604964  0.89769726     0.11100
H904        H  0.64827297  0.26796872  0.94239482     0.11100
C905        C  0.17922506  0.42009112  0.55086644    -0.15000
C906        C  0.12697307  0.41261415  0.54118424     0.07100
C907        C  0.09533771  0.37152947  0.55231782    -0.15000
C908        C  0.11600173  0.33801345  0.57248962    -0.15000
C909        C  0.16887805  0.34494094  0.58184785     0.07100
C910        C  0.19994807  0.38652154  0.57070404    -0.15000
H911        H  0.20456563  0.45133175  0.54275191     0.11100
H912        H  0.05477213  0.36474831  0.54514929     0.11100
H913        H  0.09086538  0.30611555  0.57981732     0.11100
H914        H  0.24114716  0.39241786  0.57703935     0.11100
C915        C  0.13374316  0.68453991  0.54355200    -0.15000
C916        C  0.10279976  0.63941671  0.54986825     0.07100
C917        C  0.10548420  0.61901648  0.57706721    -0.15000
C918        C  0.13962710  0.64214816  0.59723299    -0.15000
C919        C  0.17202970  0.68602520  0.59061162     0.07100
C920        C  0.16806211  0.70767132  0.56377869    -0.15000
H921        H  0.13314050  0.70055382  0.52259700     0.11100
H922        H  0.08202606  0.58438436  0.58254640     0.11100
H923        H  0.14126616  0.62521923  0.61794244     0.11100
H924        H  0.19301888  0.74111766  0.55807806     0.11100
C925        C  0.90216628  0.64383061  0.57792905    -0.15000
C926        C  0.90450107  0.66141666  0.55001106     0.07100
C927        C  0.86858483  0.70123095  0.54223576    -0.15000
C928        C  0.82856084  0.71985759  0.56146707    -0.15000
C929        C  0.82358317  0.69819417  0.58839885     0.07100
C930        C  0.86198175  0.66163689  0.59677224    -0.15000
H931        H  0.92952024  0.61352952  0.58468580     0.11100
H932        H  0.86904058  0.71512893  0.52082076     0.11100
H933        H  0.79971785  0.74873594  0.55475965     0.11100
H934        H  0.85986025  0.64554475  0.61771301     0.11100
C935        C  0.13025618  0.63215528  0.90618425    -0.15000
C936        C  0.14357631  0.62274097  0.93430527     0.07100
C937        C  0.18829974  0.64933212  0.94602103    -0.15000
C938        C  0.21673280  0.68727347  0.93041211    -0.15000
C939        C  0.20060284  0.69929146  0.90298531     0.07100
C940        C  0.15841061  0.66972205  0.89074311    -0.15000
H941        H  0.09647238  0.61188592  0.89642628     0.11100
H942        H  0.19929367  0.64312801  0.96772488     0.11100
H943        H  0.24948945  0.70901754  0.94026015     0.11100
H944        H  0.14624167  0.67649537  0.86928703     0.11100
C945        C  0.87559720  0.62276218  0.90560055    -0.15000
C946        C  0.86114397  0.61983122  0.93437840     0.07100
C947        C  0.81286341  0.64309056  0.94411046    -0.15000
C948        C  0.78190556  0.67249795  0.92582226    -0.15000
C949        C  0.79882121  0.67886942  0.89760316     0.07100
C950        C  0.84480313  0.65202653  0.88742100    -0.15000
H951        H  0.91224686  0.60451066  0.89740484     0.11100
H952        H  0.80092399  0.64158883  0.96620094     0.11100
H953        H  0.74678366  0.69312332  0.93430185     0.11100
H954        H  0.85812183  0.65539652  0.86563972     0.11100
C955        C  0.14235489  0.29491190  0.91608886    -0.15000
C956        C  0.19246644  0.31389885  0.90737568     0.07100
C957        C  0.20341070  0.36881736  0.90989574    -0.15000
C958        C  0.16543608  0.40398669  0.92252118    -0.15000
C959        C  0.11586024  0.38457663  0.93243636     0.07100
C960        C  0.10435409  0.32981037  0.92827918    -0.15000
H961        H  0.13320813  0.25267938  0.91415002     0.11100
H962        H  0.24205807  0.38405139  0.90321467     0.11100
H963        H  0.17559322  0.44581392  0.92546710     0.11100
H964        H  0.06669154  0.31327537  0.93559780     0.11100
C965        C  0.91433682  0.40140173  0.57051139    -0.15000
C966        C  0.92020829  0.38806542  0.54150449     0.07100
C967        C  0.89846720  0.33998070  0.53087364    -0.15000
C968        C  0.86784013  0.30780966  0.54847891    -0.15000
C969        C  0.85783367  0.32335440  0.57714878     0.07100
C970        C  0.88421148  0.36905920  0.58816199    -0.15000
H971        H  0.93171975  0.43780065  0.57943787     0.11100
H972        H  0.90330046  0.32825003  0.50868636     0.11100
H973        H  0.85248943  0.27109929  0.53915536     0.11100
H974        H  0.87971810  0.38097537  0.61033627     0.11100
C975        C  0.79376115  0.38279388  0.92552473    -0.15000
C976        C  0.81789001  0.34866245  0.90474952     0.07100
C977        C  0.87024145  0.36093360  0.89528611    -0.15000
C978        C  0.89963071  0.40184262  0.90861782    -0.15000
C979        C  0.87715306  0.43195656  0.93140471     0.07100
C980        C  0.82320363  0.42350193  0.93894302    -0.15000
H981        H  0.75248825  0.37683059  0.93211820     0.11100
H982        H  0.88921139  0.33921977  0.87772453     0.11100
H983        H  0.94082155  0.40811505  0.90193186     0.11100
H984        H  0.80435737  0.44676777  0.95610907     0.11100
C985        C  0.61421504  0.60618156  0.83170949    -0.15000
C986        C  0.58775616  0.62209646  0.80736919     0.07100
C987        C  0.58953840  0.67579784  0.80026582    -0.15000
C988        C  0.62082122  0.71201427  0.81583363    -0.15000
C989        C  0.65137335  0.69499064  0.83853908     0.07100
C990        C  0.64594383  0.64239178  0.84715799    -0.15000
H991        H  0.61308289  0.56501717  0.83782577     0.11100
H992        H  0.56879282  0.68932313  0.78191243     0.11100
H993        H  0.62298535  0.75288030  0.80929278     0.11100
H994        H  0.66898541  0.62819234  0.86455217     0.11100
C995        C  0.41682486  0.31270371  0.81319530    -0.15000
C996        C  0.40270136  0.36623505  0.81013544     0.07100
C997        C  0.35769848  0.38688398  0.82506167    -0.15000
C998        C  0.32674936  0.35412857  0.84234421    -0.15000
C999        C  0.34115094  0.30067142  0.84552351     0.07100
C1000       C  0.38674760  0.28042532  0.83097571    -0.15000
H1001       H  0.45105242  0.29579424  0.80170186     0.11100
H1002       H  0.34549347  0.42783629  0.82262602     0.11100
H1003       H  0.29199283  0.37069832  0.85347893     0.11100
H1004       H  0.39851554  0.23922558  0.83293317     0.11100
C1005       C  0.62373767  0.34057346  0.67400345    -0.15000
C1006       C  0.64194984  0.38203222  0.69240939     0.07100
C1007       C  0.69628047  0.39668055  0.69124070    -0.15000
C1008       C  0.73136155  0.37104116  0.67163749    -0.15000
C1009       C  0.71301956  0.32929337  0.65352324     0.07100
C1010       C  0.65909585  0.31396167  0.65506456    -0.15000
H1011       H  0.58217154  0.32803615  0.67461276     0.11100
H1012       H  0.71137428  0.42835546  0.70518409     0.11100
H1013       H  0.77303314  0.38319523  0.67087982     0.11100
H1014       H  0.64419132  0.28189832  0.64129880     0.11100
C1015       C  0.38824728  0.67295659  0.70059246    -0.15000
C1016       C  0.38708070  0.61710244  0.70114608     0.07100
C1017       C  0.34925380  0.58895099  0.68468259    -0.15000
C1018       C  0.31397827  0.61611789  0.66752194    -0.15000
C1019       C  0.31543895  0.67230676  0.66668154     0.07100
C1020       C  0.35265172  0.70007772  0.68386369    -0.15000
H1021       H  0.41631234  0.69591809  0.71340105     0.11100
H1022       H  0.34702438  0.54583149  0.68498108     0.11100
H1023       H  0.28588848  0.59247661  0.65530488     0.11100
H1024       H  0.35457021  0.74324717  0.68405192     0.11100
C1025       C  0.59526092  0.60727524  0.67205099    -0.15000
C1026       C  0.62089331  0.57829012  0.69271880     0.07100
C1027       C  0.67677273  0.58350814  0.69527757    -0.15000
C1028       C  0.70561788  0.61944030  0.67876560    -0.15000
C1029       C  0.67921856  0.65223826  0.65983428     0.07100
C1030       C  0.62390439  0.64337016  0.65575858    -0.15000
H1031       H  0.55241882  0.60362409  0.66911876     0.11100
H1032       H  0.69799401  0.56109699  0.71069539     0.11100
H1033       H  0.74843516  0.62327161  0.68168583     0.11100
H1034       H  0.60179622  0.66395392  0.64012263     0.11100
C1035       C  0.62239466  0.29771243  0.79670470    -0.15000
C1036       C  0.59307296  0.34291492  0.80620949     0.07100
C1037       C  0.59665360  0.36055582  0.83467174    -0.15000
C1038       C  0.63339371  0.33772515  0.85232954    -0.15000
C1039       C  0.66706351  0.29654848  0.84198626     0.07100
C1040       C  0.65933613  0.27448375  0.81462896    -0.15000
H1041       H  0.62028246  0.28337081  0.77484454     0.11100
H1042       H  0.57391851  0.39476501  0.84271781     0.11100
H1043       H  0.63793886  0.35451804  0.87363254     0.11100
H1044       H  0.68475126  0.24242646  0.80641511     0.11100
C1045       C  0.40526752  0.64817686  0.82007951    -0.15000
C1046       C  0.37379400  0.60598891  0.80864649     0.07100
C1047       C  0.31849781  0.60587651  0.81488841    -0.15000
C1048       C  0.29492430  0.64819286  0.83081102    -0.15000
C1049       C  0.32606112  0.69139644  0.84098766     0.07100
C1050       C  0.38157895  0.69048878  0.83605740    -0.15000
H1051       H  0.44796993  0.64967662  0.81569091     0.11100
H1052       H  0.29303223  0.57425607  0.80644059     0.11100
H1053       H  0.25186612  0.64844048  0.83416221     0.11100
H1054       H  0.40619839  0.72371084  0.84339065     0.11100
C1055       C  0.30577635  0.39695995  0.70134314    -0.15000
C1056       C  0.36115021  0.38825085  0.69893304     0.07100
C1057       C  0.38066570  0.34893772  0.67937199    -0.15000
C1058       C  0.34559180  0.31978374  0.66204734    -0.15000
C1059       C  0.29059024  0.33019702  0.66357413     0.07100
C1060       C  0.27074987  0.36856348  0.68349656    -0.15000
H1061       H  0.28981279  0.42673109  0.71637649     0.11100
H1062       H  0.42320360  0.34088283  0.67734643     0.11100
H1063       H  0.36164879  0.29090436  0.64653349     0.11100
H1064       H  0.22826966  0.37721516  0.68480174     0.11100
loop_ 
_geom_bond_atom_site_label_1 
_geom_bond_atom_site_label_2 
_geom_bond_distance 
_geom_bond_site_symmetry_2 
_ccdc_geom_bond_type 
O1            C9   1.256       .  A
O1          Co21   1.963       .  S
O2           C10   1.270       .  A
O2          Co22   1.973       .  S
O3           C11   1.297       .  A
O3          Co23   2.113       .  S
O4           C12   1.275       .  A
O4          Co24   2.029       .  S
O5           C11   1.266       .  A
O5          Co22   1.891       .  S
O6           C12   1.261       .  A
O6          Co21   1.959       .  S
O7           C10   1.280       .  A
O7          Co24   2.038       .  S
O8            C9   1.263       .  A
O8          Co23   2.006       .  S
C9          C524   1.472       .  S
C10         C494   1.491       .  S
C11         C484   1.482       .  S
C12         C474   1.483       .  S
O13          C26   1.271       .  A
O13         Co21   2.033       .  S
O14          C27   1.294       .  A
O14         Co22   2.106       .  S
O15          C28   1.272       .  A
O15         Co23   1.976       .  S
O16          C29   1.255       .  A
O16         Co24   1.970       .  S
O17          C29   1.264       .  A
O17         Co22   2.003       .  S
O18          C28   1.279       .  A
O18         Co21   2.023       .  S
O19          C26   1.259       .  A
O19         Co24   1.960       .  S
O20          C27   1.268       .  A
O20         Co23   1.910       .  S
Co21         O25   2.035       .  S
Co22         O25   2.007       .  S
Co23         O25   2.026       .  S
Co24         O25   2.027       .  S
C26         C504   1.479       .  S
C27         C514   1.492       .  S
C28         C464   1.480       .  S
C29         C454   1.475       .  S
O30          C38   1.256       .  A
O30        Co582   1.974       .  S
O31          C39   1.267       .  A
O31        Co583   1.968   1_554  S
O32          C40   1.292       .  A
O32        Co584   2.098   1_554  S
O33          C41   1.277       .  A
O33        Co585   2.055   1_654  S
O34          C40   1.270       .  A
O34        Co583   1.892   1_554  S
O35          C41   1.254       .  A
O35        Co582   1.948       .  S
O36          C39   1.276       .  A
O36        Co585   2.020   1_554  S
O37          C38   1.262   1_556  A
O37        Co584   2.007   1_655  S
C38         C434   1.471       .  S
C39         C384   1.475       .  S
C40         C374   1.474       .  S
C41         C394   1.483       .  S
O42          C55   1.276       .  A
O42         Co50   2.039       .  S
O43          C56   1.301       .  A
O43         Co51   2.119       .  S
O44          C57   1.270       .  A
O44         Co52   1.963   1_655  S
O45          C58   1.258       .  A
O45         Co53   1.973       .  S
O46          C58   1.268       .  A
O46         Co51   2.032       .  S
O47          C57   1.278       .  A
O47         Co50   2.024       .  S
O48          C55   1.260       .  A
O48         Co53   1.951   1_655  S
O49          C56   1.266       .  A
O49         Co52   1.886       .  S
Co50        O562   1.969       .  S
Co50        O567   1.947       .  S
Co50         O54   2.015       .  S
Co51        O563   1.967       .  S
Co51        O566   1.893       .  S
Co51         O54   2.010   1_455  S
Co52        O564   2.099       .  S
Co52        O569   2.016   1_455  S
Co52         O54   1.992   1_455  S
Co53        O565   2.053   1_455  S
Co53        O568   2.031       .  S
Co53         O54   2.032   1_455  S
C55         C414   1.480       .  S
C56         C427   1.484       .  S
C57         C447   1.479       .  S
C58         C404   1.488       .  S
C59          C60   1.528       .  S
C59          C65   1.536       .  S
C59          C63   1.540       .  S
C59         C444   1.531       .  S
C60          H67   1.087       .  S
C60          C61   1.365       .  D
C61          C62   1.541       .  S
C61         C507   1.480       .  S
C62          C66   1.549       .  S
C62          C64   1.550       .  S
C62          H68   1.110       .  S
C63          H69   1.086       .  S
C63          C64   1.370       .  D
C64         C367   1.491       .  S
C65          H70   1.080       .  S
C65          C66   1.365       .  D
C66         C354   1.495       .  S
O71          C79   1.262       .  A
O71         Co91   1.982       .  S
O72          C80   1.273       .  A
O72        Co624   1.880       .  S
O73          C81   1.264       .  A
O73         Co93   2.007       .  S
O74          C82   1.297       .  A
O74         Co94   2.068       .  S
O75          C81   1.265       .  A
O75         Co92   2.005       .  S
O76          C82   1.272       .  A
O76        Co623   1.894       .  S
O77          C80   1.304       .  A
O77         Co94   2.097   1_565  S
O78          C79   1.272       .  A
O78         Co93   2.024   1_545  S
C79         C324   1.490       .  S
C80         C304   1.484       .  S
C81         C344   1.489       .  S
C82         C294   1.476       .  S
O83          C96   1.245       .  A
O83        Co623   1.956       .  S
O84          C97   1.271       .  A
O84         Co92   2.018       .  S
O85          C98   1.258       .  A
O85         Co93   1.960   1_545  S
O86          C99   1.253       .  A
O86         Co94   2.004   1_565  S
O87          C99   1.244       .  A
O87        Co624   1.978       .  S
O88          C98   1.274       .  A
O88         Co91   2.037       .  S
O89          C96   1.259       .  A
O89         Co94   2.027       .  S
O90          C97   1.262       .  A
O90         Co93   1.961       .  S
Co91        O608   1.895       .  S
Co91        O615   1.950       .  S
Co91         O95   1.943       .  S
Co92        O604   1.885       .  S
Co92        O619   1.980       .  S
Co92         O95   1.936   1_565  S
Co93         O95   2.071   1_565  S
Co94        O627   2.243       .  S
O95        Co626   2.246       .  S
C96         C287   1.485       .  S
C97         C314   1.464       .  S
C98         C364   1.483       .  S
C99         C334   1.487       .  S
C100        C101   1.527       .  S
C100        C106   1.544       .  S
C100        C104   1.538       .  S
C100        C277   1.537       .  S
C101        H108   1.087       .  S
C101        C102   1.364       .  D
C102        C103   1.555       .  S
C102        C347   1.491       .  S
C103        C107   1.546       .  S
C103        C105   1.549       .  S
C103        H109   1.110       .  S
C104        H110   1.086       .  S
C104        C105   1.366       .  D
C105        C517   1.489       .  S
C106        H111   1.085       .  S
C106        C107   1.373       .  D
C107        C407   1.495       .  S
O112        C120   1.272       .  A
O112       Co132   1.975   1_655  S
O113        C121   1.258       .  A
O113       Co133   1.971   1_455  S
O114        C122   1.275       .  A
O114       Co134   2.030   1_565  S
O115        C123   1.295       .  A
O115       Co135   2.097       .  S
O116        C122   1.257       .  A
O116       Co133   1.950       .  S
O117        C123   1.271       .  A
O117       Co132   1.909       .  S
O118        C121   1.270       .  A
O118       Co135   2.034   1_565  S
O119        C120   1.277       .  A
O119       Co134   2.026       .  S
C120        C357   1.488       .  S
C121        C274   1.490       .  S
C122        C234   1.476       .  S
C123        C217   1.488       .  S
O124        C137   1.294       .  A
O124       Co132   2.095       .  S
O125        C138   1.276       .  A
O125       Co133   2.040       .  S
O126        C139   1.255       .  A
O126       Co134   1.959       .  S
O127        C140   1.270       .  A
O127       Co135   1.975   1_565  S
O128        C140   1.278       .  A
O128       Co133   2.016   1_455  S
O129        C139   1.270       .  A
O129       Co132   2.031   1_655  S
O130        C137   1.272       .  A
O130       Co135   1.904       .  S
O131        C138   1.257       .  A
O131       Co134   1.950   1_565  S
Co132       O136   2.001   1_445  S
Co133       O136   2.020       .  S
Co134       O136   2.023   1_545  S
Co135       O136   2.009   1_445  S
C137        C224   1.484       .  S
C138        C254   1.481       .  S
C139        C264   1.483       .  S
C140        C244   1.484       .  S
C141        C142   1.539       .  S
C141        C147   1.543       .  S
C141        C145   1.540       .  S
C141        C497   1.541       .  S
C142        H149   1.086       .  S
C142        C143   1.371       .  D
C143        C144   1.535       .  S
C143        C397   1.484       .  S
C144        C148   1.541       .  S
C144        C146   1.545       .  S
C144        H150   1.110       .  S
C145        H151   1.086       .  S
C145        C146   1.370       .  D
C146        C257   1.485       .  S
C147        H152   1.082       .  S
C147        C148   1.364       .  D
C148        C337   1.488       .  S
C153        C154   1.531       .  S
C153        C159   1.546       .  S
C153        C157   1.529       .  S
C153        C377   1.519       .  S
C154        H161   1.087       .  S
C154        C155   1.360       .  D
C155        C156   1.539       .  S
C155        C527   1.475       .  S
C156        C160   1.546       .  S
C156        C158   1.536       .  S
C156        H162   1.108       .  S
C157        H163   1.087       .  S
C157        C158   1.356       .  D
C158        C297   1.474       .  S
C159        H164   1.082       .  S
C159        C160   1.379       .  D
C160        C227   1.496       .  S
C165        C166   1.530       .  S
C165        C171   1.537       .  S
C165        C169   1.544       .  S
C165        C437   1.526       .  S
C166        H173   1.087       .  S
C166        C167   1.360       .  D
C167        C168   1.544       .  S
C167        C267   1.475       .  S
C168        C172   1.542       .  S
C168        C170   1.547       .  S
C168        H174   1.109       .  S
C169        H175   1.079       .  S
C169        C170   1.372       .  D
C170        C284   1.505       .  S
C171        H176   1.086       .  S
C171        C172   1.363       .  D
C172        C477   1.475       .  S
C177        C178   1.529       .  S
C177        C183   1.541       .  S
C177        C181   1.537       .  S
C177        C487   1.531       .  S
C178        H185   1.087       .  S
C178        C179   1.361       .  D
C179        C180   1.539       .  S
C179        C307   1.476       .  S
C180        C184   1.541       .  S
C180        C182   1.538       .  S
C180        H186   1.110       .  S
C181        H187   1.086       .  S
C181        C182   1.369       .  D
C182        C247   1.484       .  S
C183        H188   1.082       .  S
C183        C184   1.372       .  D
C184        C387   1.481       .  S
C189        C190   1.535       .  S
C189        C195   1.534       .  S
C189        C193   1.548       .  S
C189        C327   1.538       .  S
C190        H197   1.086       .  S
C190        C191   1.365       .  D
C191        C192   1.547       .  S
C191        C467   1.492       .  S
C192        C196   1.547       .  S
C192        C194   1.537       .  S
C192        H198   1.110       .  S
C193        H199   1.082       .  S
C193        C194   1.370       .  D
C194        C424   1.481       .  S
C195        H200   1.085       .  S
C195        C196   1.370       .  D
C196        C214   1.498       .  S
C201        C202   1.541       .  S
C201        C207   1.526       .  S
C201        C205   1.532       .  S
C201        C237   1.522       .  S
C202        H209   1.085       .  S
C202        C203   1.371       .  D
C203        C204   1.540       .  S
C203        C417   1.484       .  S
C204        C208   1.532       .  S
C204        C206   1.544       .  S
C204        H210   1.110       .  S
C205        H211   1.084       .  S
C205        C206   1.365       .  D
C206        C457   1.483       .  S
C207        H212   1.087       .  S
C207        C208   1.364       .  D
C208        C317   1.470       .  S
C213        C214   1.409       .  A
C213        C218   1.408       .  A
C213        H219   1.082       .  S
C214        C215   1.406       .  A
C215        C216   1.395       .  A
C215        H220   1.082       .  S
C216        C217   1.406       .  A
C216        H221   1.083       .  S
C217        C218   1.407       .  A
C218        H222   1.083       .  S
C223        C224   1.403       .  A
C223        C228   1.402       .  A
C223        H229   1.083       .  S
C224        C225   1.407       .  A
C225        C226   1.396       .  A
C225        H230   1.083       .  S
C226        C227   1.406       .  A
C226        H231   1.081       .  S
C227        C228   1.410       .  A
C228        H232   1.080       .  S
C233        C234   1.401       .  A
C233        C238   1.396       .  A
C233        H239   1.083       .  S
C234        C235   1.407       .  A
C235        C236   1.394       .  A
C235        H240   1.083       .  S
C236        C237   1.405       .  A
C236        H241   1.082       .  S
C237        C238   1.412       .  A
C238        H242   1.080       .  S
C243        C244   1.405       .  A
C243        C248   1.393       .  A
C243        H249   1.083       .  S
C244        C245   1.409       .  A
C245        C246   1.405       .  A
C245        H250   1.083       .  S
C246        C247   1.405       .  A
C246        H251   1.083       .  S
C247        C248   1.403       .  A
C248        H252   1.083       .  S
C253        C254   1.409       .  A
C253        C258   1.395       .  A
C253        H259   1.083       .  S
C254        C255   1.403       .  A
C255        C256   1.401       .  A
C255        H260   1.083       .  S
C256        C257   1.409       .  A
C256        H261   1.083       .  S
C257        C258   1.400       .  A
C258        H262   1.083       .  S
C263        C264   1.404       .  A
C263        C268   1.404       .  A
C263        H269   1.083       .  S
C264        C265   1.411       .  A
C265        C266   1.395       .  A
C265        H270   1.083       .  S
C266        C267   1.396       .  A
C266        H271   1.084       .  S
C267        C268   1.407       .  A
C268        H272   1.083       .  S
C273        C274   1.408       .  A
C273        C278   1.399       .  A
C273        H279   1.083       .  S
C274        C275   1.404       .  A
C275        C276   1.406       .  A
C275        H280   1.083       .  S
C276        C277   1.414       .  A
C276        H281   1.081       .  S
C277        C278   1.408       .  A
C278        H282   1.082       .  S
C283        C284   1.409       .  A
C283        C288   1.396       .  A
C283        H289   1.081       .  S
C284        C285   1.411       .  A
C285        C286   1.409       .  A
C285        H290   1.081       .  S
C286        C287   1.406       .  A
C286        H291   1.083       .  S
C287        C288   1.403       .  A
C288        H292   1.084       .  S
C293        C294   1.408       .  A
C293        C298   1.396       .  A
C293        H299   1.083       .  S
C294        C295   1.403       .  A
C295        C296   1.395       .  A
C295        H300   1.083       .  S
C296        C297   1.405       .  A
C296        H301   1.083       .  S
C297        C298   1.399       .  A
C298        H302   1.082       .  S
C303        C304   1.406       .  A
C303        C308   1.394       .  A
C303        H309   1.083       .  S
C304        C305   1.409       .  A
C305        C306   1.404       .  A
C305        H310   1.083       .  S
C306        C307   1.402       .  A
C306        H311   1.083       .  S
C307        C308   1.402       .  A
C308        H312   1.084       .  S
C313        C314   1.404       .  A
C313        C318   1.400       .  A
C313        H319   1.083       .  S
C314        C315   1.402       .  A
C315        C316   1.388       .  A
C315        H320   1.084       .  S
C316        C317   1.401       .  A
C316        H321   1.084       .  S
C317        C318   1.403       .  A
C318        H322   1.083       .  S
C323        C324   1.404       .  A
C323        C328   1.399       .  A
C323        H329   1.083       .  S
C324        C325   1.408       .  A
C325        C326   1.407       .  A
C325        H330   1.083       .  S
C326        C327   1.412       .  A
C326        H331   1.078       .  S
C327        C328   1.411       .  A
C328        H332   1.083       .  S
C333        C334   1.405       .  A
C333        C338   1.400       .  A
C333        H339   1.083       .  S
C334        C335   1.409       .  A
C335        C336   1.405       .  A
C335        H340   1.083       .  S
C336        C337   1.403       .  A
C336        H341   1.082       .  S
C337        C338   1.406       .  A
C338        H342   1.083       .  S
C343        C344   1.402       .  A
C343        C348   1.407       .  A
C343        H349   1.083       .  S
C344        C345   1.411       .  A
C345        C346   1.403       .  A
C345        H350   1.083       .  S
C346        C347   1.400       .  A
C346        H351   1.083       .  S
C347        C348   1.411       .  A
C348        H352   1.083       .  S
C353        C354   1.404       .  A
C353        C358   1.406       .  A
C353        H359   1.082       .  S
C354        C355   1.410       .  A
C355        C356   1.396       .  A
C355        H360   1.082       .  S
C356        C357   1.402       .  A
C356        H361   1.083       .  S
C357        C358   1.411       .  A
C358        H362   1.083       .  S
C363        C364   1.402       .  A
C363        C368   1.406       .  A
C363        H369   1.083       .  S
C364        C365   1.408       .  A
C365        C366   1.397       .  A
C365        H370   1.083       .  S
C366        C367   1.400       .  A
C366        H371   1.083       .  S
C367        C368   1.412       .  A
C368        H372   1.083       .  S
C373        C374   1.398       .  A
C373        C378   1.389       .  A
C373        H379   1.083       .  S
C374        C375   1.409       .  A
C375        C376   1.400       .  A
C375        H380   1.083       .  S
C376        C377   1.405       .  A
C376        H381   1.079       .  S
C377        C378   1.411       .  A
C378        H382   1.084       .  S
C383        C384   1.406       .  A
C383        C388   1.398       .  A
C383        H389   1.083       .  S
C384        C385   1.403       .  A
C385        C386   1.395       .  A
C385        H390   1.083       .  S
C386        C387   1.405       .  A
C386        H391   1.083       .  S
C387        C388   1.403       .  A
C388        H392   1.083       .  S
C393        C394   1.408       .  A
C393        C398   1.395       .  A
C393        H399   1.084       .  S
C394        C395   1.407       .  A
C395        C396   1.408       .  A
C395        H400   1.083       .  S
C396        C397   1.406       .  A
C396        H401   1.082       .  S
C397        C398   1.401       .  A
C398        H402   1.084       .  S
C403        C404   1.405       .  A
C403        C408   1.395       .  A
C403        H409   1.083       .  S
C404        C405   1.409       .  A
C405        C406   1.411       .  A
C405        H410   1.083       .  S
C406        C407   1.408       .  A
C406        H411   1.083       .  S
C407        C408   1.405       .  A
C408        H412   1.083       .  S
C413        C414   1.406       .  A
C413        C418   1.393       .  A
C413        H419   1.083       .  S
C414        C415   1.405       .  A
C415        C416   1.404       .  A
C415        H420   1.083       .  S
C416        C417   1.408       .  A
C416        H421   1.083       .  S
C417        C418   1.401       .  A
C418        H422   1.083       .  S
C423        C424   1.402       .  A
C423        C428   1.401       .  A
C423        H429   1.083       .  S
C424        C425   1.403       .  A
C425        C426   1.403       .  A
C425        H430   1.083       .  S
C426        C427   1.406       .  A
C426        H431   1.083       .  S
C427        C428   1.407       .  A
C428        H432   1.083       .  S
C433        C434   1.402       .  A
C433        C438   1.395       .  A
C433        H439   1.083       .  S
C434        C435   1.401       .  A
C435        C436   1.397       .  A
C435        H440   1.084       .  S
C436        C437   1.412       .  A
C436        H441   1.077       .  S
C437        C438   1.408       .  A
C438        H442   1.083       .  S
C443        C444   1.409       .  A
C443        C448   1.399       .  A
C443        H449   1.083       .  S
C444        C445   1.412       .  A
C445        C446   1.395       .  A
C445        H450   1.077       .  S
C446        C447   1.402       .  A
C446        H451   1.083       .  S
C447        C448   1.405       .  A
C448        H452   1.083       .  S
C453        C454   1.408       .  A
C453        C458   1.398       .  A
C453        H459   1.083       .  S
C454        C455   1.401       .  A
C455        C456   1.394       .  A
C455        H460   1.083       .  S
C456        C457   1.408       .  A
C456        H461   1.082       .  S
C457        C458   1.402       .  A
C458        H462   1.082       .  S
C463        C464   1.403       .  A
C463        C468   1.398       .  A
C463        H469   1.084       .  S
C464        C465   1.407       .  A
C465        C466   1.405       .  A
C465        H470   1.083       .  S
C466        C467   1.406       .  A
C466        H471   1.083       .  S
C467        C468   1.407       .  A
C468        H472   1.083       .  S
C473        C474   1.409       .  A
C473        C478   1.398       .  A
C473        H479   1.083       .  S
C474        C475   1.406       .  A
C475        C476   1.401       .  A
C475        H480   1.083       .  S
C476        C477   1.403       .  A
C476        H481   1.083       .  S
C477        C478   1.399       .  A
C478        H482   1.083       .  S
C483        C484   1.403       .  A
C483        C488   1.394       .  A
C483        H489   1.083       .  S
C484        C485   1.405       .  A
C485        C486   1.405       .  A
C485        H490   1.083       .  S
C486        C487   1.413       .  A
C486        H491   1.078       .  S
C487        C488   1.408       .  A
C488        H492   1.083       .  S
C493        C494   1.404       .  A
C493        C498   1.400       .  A
C493        H499   1.083       .  S
C494        C495   1.407       .  A
C495        C496   1.406       .  A
C495        H500   1.083       .  S
C496        C497   1.411       .  A
C496        H501   1.083       .  S
C497        C498   1.412       .  A
C498        H502   1.078       .  S
C503        C504   1.408       .  A
C503        C508   1.406       .  A
C503        H509   1.083       .  S
C504        C505   1.404       .  A
C505        C506   1.393       .  A
C505        H510   1.083       .  S
C506        C507   1.402       .  A
C506        H511   1.084       .  S
C507        C508   1.404       .  A
C508        H512   1.083       .  S
C513        C514   1.411       .  A
C513        C518   1.407       .  A
C513        H519   1.083       .  S
C514        C515   1.406       .  A
C515        C516   1.401       .  A
C515        H520   1.083       .  S
C516        C517   1.406       .  A
C516        H521   1.083       .  S
C517        C518   1.402       .  A
C518        H522   1.083       .  S
C523        C524   1.402       .  A
C523        C528   1.399       .  A
C523        H529   1.083       .  S
C524        C525   1.406       .  A
C525        C526   1.393       .  A
C525        H530   1.083       .  S
C526        C527   1.399       .  A
C526        H531   1.084       .  S
C527        C528   1.406       .  A
C528        H532   1.083       .  S
O533        C541   1.255       .  A
O533       Co553   1.958       .  S
O534        C542   1.271       .  A
O534       Co554   1.971       .  S
O535        C543   1.296       .  A
O535       Co555   2.106       .  S
O536        C544   1.276       .  A
O536       Co556   2.037       .  S
O537        C543   1.265       .  A
O537       Co554   1.891       .  S
O538        C544   1.260       .  A
O538       Co553   1.956       .  S
O539        C542   1.280       .  A
O539       Co556   2.032       .  S
O540        C541   1.266       .  A
O540       Co555   2.014       .  S
C541       C1056   1.473       .  S
C542       C1026   1.488       .  S
C543       C1016   1.479       .  S
C544       C1006   1.484       .  S
O545        C558   1.272       .  A
O545       Co553   2.030       .  S
O546        C559   1.294       .  A
O546       Co554   2.105       .  S
O547        C560   1.269       .  A
O547       Co555   1.970       .  S
O548        C561   1.255       .  A
O548       Co556   1.970       .  S
O549        C561   1.262       .  A
O549       Co554   1.997       .  S
O550        C560   1.278       .  A
O550       Co553   2.021       .  S
O551        C558   1.257       .  A
O551       Co556   1.951       .  S
O552        C559   1.270       .  A
O552       Co555   1.912       .  S
Co553       O557   2.032       .  S
Co554       O557   2.003       .  S
Co555       O557   2.023       .  S
Co556       O557   2.022       .  S
C558       C1036   1.475       .  S
C559       C1046   1.493       .  S
C560        C996   1.476       .  S
C561        C986   1.472       .  S
O562        C570   1.255       .  A
O563        C571   1.266       .  A
O564        C572   1.292       .  A
O565        C573   1.275       .  A
O566        C572   1.270       .  A
O567        C573   1.253       .  A
O568        C571   1.278       .  A
O569        C570   1.265       .  A
C570        C966   1.475       .  S
C571        C916   1.480       .  S
C572        C906   1.476       .  S
C573        C926   1.484       .  S
O574        C587   1.276       .  A
O574       Co582   2.034   1_556  S
O575        C588   1.303       .  A
O575       Co583   2.129       .  S
O576        C589   1.270       .  A
O576       Co584   1.963   1_655  S
O577        C590   1.258       .  A
O577       Co585   1.974       .  S
O578        C590   1.267       .  A
O578       Co583   2.026       .  S
O579        C589   1.278       .  A
O579       Co582   2.017   1_556  S
O580        C587   1.260       .  A
O580       Co585   1.949   1_655  S
O581        C588   1.263       .  A
O581       Co584   1.874       .  S
Co582       O586   2.012   1_554  S
Co583       O586   2.008   1_455  S
Co584       O586   1.982   1_455  S
Co585       O586   2.026   1_455  S
C587        C946   1.475       .  S
C588        C959   1.488       .  S
C589        C979   1.475       .  S
C590        C936   1.485       .  S
C591        C592   1.524       .  S
C591        C597   1.536       .  S
C591        C595   1.540       .  S
C591        C976   1.523       .  S
C592        H599   1.087       .  S
C592        C593   1.364       .  D
C593        C594   1.539       .  S
C593       C1039   1.476       .  S
C594        C598   1.547       .  S
C594        C596   1.544       .  S
C594        H600   1.110       .  S
C595        H601   1.086       .  S
C595        C596   1.367       .  D
C596        C899   1.479       .  S
C597        H602   1.082       .  S
C597        C598   1.366       .  D
C598        C886   1.492       .  S
O603        C611   1.261       .  A
O603       Co623   1.985   1_556  S
O604        C612   1.274       .  A
O605        C613   1.265       .  A
O605       Co625   2.000   1_565  S
O606        C614   1.298       .  A
O606       Co626   2.077       .  S
O607        C613   1.264       .  A
O607       Co624   2.002   1_556  S
O608        C614   1.272       .  A
O609        C612   1.304       .  A
O609       Co626   2.099   1_565  S
O610        C611   1.271       .  A
O610       Co625   2.021       .  S
C611        C856   1.486       .  S
C612        C836   1.489       .  S
C613        C876   1.488       .  S
C614        C826   1.482       .  S
O615        C628   1.246       .  A
O616        C629   1.270       .  A
O616       Co624   2.011   1_556  S
O617        C630   1.257       .  A
O617       Co625   1.957       .  S
O618        C631   1.251       .  A
O618       Co626   1.998   1_565  S
O619        C631   1.244       .  A
O620        C630   1.272       .  A
O620       Co623   2.032   1_556  S
O621        C628   1.259       .  A
O621       Co626   2.028       .  S
O622        C629   1.261       .  A
O622       Co625   1.957   1_565  S
Co623       O627   1.934       .  S
Co624       O627   1.932   1_565  S
Co625       O627   2.063   1_556  S
C628        C819   1.493       .  S
C629        C846   1.461       .  S
C630        C896   1.480       .  S
C631        C866   1.486       .  S
C632        C633   1.524       .  S
C632        C638   1.540       .  S
C632        C636   1.542       .  S
C632        C809   1.536       .  S
C633        H640   1.087       .  S
C633        C634   1.364       .  D
C634        C635   1.556       .  S
C634        C879   1.494       .  S
C635        C639   1.545       .  S
C635        C637   1.548       .  S
C635        H641   1.110       .  S
C636        H642   1.083       .  S
C636        C637   1.368       .  D
C637       C1049   1.487       .  S
C638        H643   1.086       .  S
C638        C639   1.373       .  D
C639        C939   1.493       .  S
O644        C652   1.273       .  A
O644       Co664   1.981   1_655  S
O645        C653   1.260       .  A
O645       Co665   1.977   1_455  S
O646        C654   1.273       .  A
O646       Co666   2.018   1_565  S
O647        C655   1.297       .  A
O647       Co667   2.104       .  S
O648        C654   1.258       .  A
O648       Co665   1.954       .  S
O649        C655   1.270       .  A
O649       Co664   1.904       .  S
O650        C653   1.270       .  A
O650       Co667   2.027   1_565  S
O651        C652   1.277       .  A
O651       Co666   2.025       .  S
C652        C889   1.489       .  S
C653        C806   1.486       .  S
C654        C766   1.471       .  S
C655        C749   1.486       .  S
O656        C669   1.297       .  A
O656       Co664   2.105       .  S
O657        C670   1.277       .  A
O657       Co665   2.038       .  S
O658        C671   1.255       .  A
O658       Co666   1.957       .  S
O659        C672   1.272       .  A
O659       Co667   1.983   1_565  S
O660        C672   1.278       .  A
O660       Co665   2.017   1_455  S
O661        C671   1.269       .  A
O661       Co664   2.027   1_655  S
O662        C669   1.271       .  A
O662       Co667   1.897       .  S
O663        C670   1.259       .  A
O663       Co666   1.953   1_565  S
Co664       O668   2.002   1_455  S
Co665       O668   2.022   1_565  S
Co666       O668   2.026       .  S
Co667       O668   2.004   1_455  S
C669        C756   1.485       .  S
C670        C786   1.482       .  S
C671        C796   1.477       .  S
C672        C776   1.489       .  S
C673        C674   1.537       .  S
C673        C679   1.541       .  S
C673        C677   1.540       .  S
C673       C1029   1.538       .  S
C674        H681   1.086       .  S
C674        C675   1.371       .  D
C675        C676   1.535       .  S
C675        C929   1.484       .  S
C676        C680   1.541       .  S
C676        C678   1.547       .  S
C676        H682   1.110       .  S
C677        H683   1.086       .  S
C677        C678   1.371       .  D
C678        C789   1.489       .  S
C679        H684   1.082       .  S
C679        C680   1.362       .  D
C680        C869   1.486       .  S
C685        C686   1.531       .  S
C685        C691   1.543       .  S
C685        C689   1.529       .  S
C685        C909   1.521       .  S
C686        H693   1.087       .  S
C686        C687   1.359       .  D
C687        C688   1.540       .  S
C687       C1059   1.473       .  S
C688        C692   1.549       .  S
C688        C690   1.542       .  S
C688        H694   1.109       .  S
C689        H695   1.087       .  S
C689        C690   1.360       .  D
C690        C829   1.484       .  S
C691        H696   1.082       .  S
C691        C692   1.377       .  D
C692        C759   1.496       .  S
C697        C698   1.524       .  S
C697        C703   1.543       .  S
C697        C701   1.539       .  S
C697        C969   1.529       .  S
C698        H705   1.087       .  S
C698        C699   1.363       .  D
C699        C700   1.549       .  S
C699        C799   1.478       .  S
C700        C704   1.542       .  S
C700        C702   1.549       .  S
C700        H706   1.110       .  S
C701        H707   1.078       .  S
C701        C702   1.370       .  D
C702        C816   1.506       .  S
C703        H708   1.086       .  S
C703        C704   1.366       .  D
C704       C1009   1.483       .  S
C709        C710   1.530       .  S
C709        C715   1.542       .  S
C709        C713   1.533       .  S
C709       C1019   1.529       .  S
C710        H717   1.087       .  S
C710        C711   1.361       .  D
C711        C712   1.544       .  S
C711        C839   1.481       .  S
C712        C716   1.545       .  S
C712        C714   1.545       .  S
C712        H718   1.110       .  S
C713        H719   1.086       .  S
C713        C714   1.369       .  D
C714        C779   1.491       .  S
C715        H720   1.082       .  S
C715        C716   1.371       .  D
C716        C919   1.485       .  S
C721        C722   1.534       .  S
C721        C727   1.535       .  S
C721        C725   1.547       .  S
C721        C859   1.535       .  S
C722        H729   1.087       .  S
C722        C723   1.364       .  D
C723        C724   1.542       .  S
C723        C999   1.484       .  S
C724        C728   1.547       .  S
C724        C726   1.535       .  S
C724        H730   1.110       .  S
C725        H731   1.082       .  S
C725        C726   1.369       .  D
C726        C956   1.478       .  S
C727        H732   1.086       .  S
C727        C728   1.371       .  D
C728        C746   1.494       .  S
C733        C734   1.539       .  S
C733        C739   1.527       .  S
C733        C737   1.533       .  S
C733        C769   1.520       .  S
C734        H741   1.086       .  S
C734        C735   1.372       .  D
C735        C736   1.538       .  S
C735        C949   1.481       .  S
C736        C740   1.530       .  S
C736        C738   1.538       .  S
C736        H742   1.110       .  S
C737        H743   1.082       .  S
C737        C738   1.363       .  D
C738        C989   1.478       .  S
C739        H744   1.087       .  S
C739        C740   1.363       .  D
C740        C849   1.467       .  S
C745        C746   1.408       .  A
C745        C750   1.406       .  A
C745        H751   1.082       .  S
C746        C747   1.406       .  A
C747        C748   1.395       .  A
C747        H752   1.082       .  S
C748        C749   1.406       .  A
C748        H753   1.083       .  S
C749        C750   1.407       .  A
C750        H754   1.083       .  S
C755        C756   1.405       .  A
C755        C760   1.403       .  A
C755        H761   1.083       .  S
C756        C757   1.406       .  A
C757        C758   1.397       .  A
C757        H762   1.083       .  S
C758        C759   1.407       .  A
C758        H763   1.082       .  S
C759        C760   1.408       .  A
C760        H764   1.080       .  S
C765        C766   1.400       .  A
C765        C770   1.393       .  A
C765        H771   1.083       .  S
C766        C767   1.404       .  A
C767        C768   1.394       .  A
C767        H772   1.083       .  S
C768        C769   1.406       .  A
C768        H773   1.083       .  S
C769        C770   1.411       .  A
C770        H774   1.078       .  S
C775        C776   1.406       .  A
C775        C780   1.394       .  A
C775        H781   1.083       .  S
C776        C777   1.409       .  A
C777        C778   1.408       .  A
C777        H782   1.083       .  S
C778        C779   1.406       .  A
C778        H783   1.083       .  S
C779        C780   1.405       .  A
C780        H784   1.083       .  S
C785        C786   1.409       .  A
C785        C790   1.396       .  A
C785        H791   1.083       .  S
C786        C787   1.403       .  A
C787        C788   1.400       .  A
C787        H792   1.083       .  S
C788        C789   1.409       .  A
C788        H793   1.082       .  S
C789        C790   1.402       .  A
C790        H794   1.082       .  S
C795        C796   1.401       .  A
C795        C800   1.402       .  A
C795        H801   1.083       .  S
C796        C797   1.409       .  A
C797        C798   1.396       .  A
C797        H802   1.083       .  S
C798        C799   1.397       .  A
C798        H803   1.083       .  S
C799        C800   1.409       .  A
C800        H804   1.083       .  S
C805        C806   1.405       .  A
C805        C810   1.400       .  A
C805        H811   1.083       .  S
C806        C807   1.404       .  A
C807        C808   1.404       .  A
C807        H812   1.083       .  S
C808        C809   1.413       .  A
C808        H813   1.079       .  S
C809        C810   1.409       .  A
C810        H814   1.083       .  S
C815        C816   1.409       .  A
C815        C820   1.390       .  A
C815        H821   1.080       .  S
C816        C817   1.411       .  A
C817        C818   1.414       .  A
C817        H822   1.082       .  S
C818        C819   1.410       .  A
C818        H823   1.083       .  S
C819        C820   1.404       .  A
C820        H824   1.084       .  S
C825        C826   1.409       .  A
C825        C830   1.400       .  A
C825        H831   1.083       .  S
C826        C827   1.403       .  A
C827        C828   1.397       .  A
C827        H832   1.083       .  S
C828        C829   1.407       .  A
C828        H833   1.083       .  S
C829        C830   1.401       .  A
C830        H834   1.081       .  S
C835        C836   1.406       .  A
C835        C840   1.396       .  A
C835        H841   1.083       .  S
C836        C837   1.410       .  A
C837        C838   1.407       .  A
C837        H842   1.083       .  S
C838        C839   1.403       .  A
C838        H843   1.083       .  S
C839        C840   1.402       .  A
C840        H844   1.084       .  S
C845        C846   1.402       .  A
C845        C850   1.398       .  A
C845        H851   1.083       .  S
C846        C847   1.402       .  A
C847        C848   1.387       .  A
C847        H852   1.084       .  S
C848        C849   1.400       .  A
C848        H853   1.083       .  S
C849        C850   1.403       .  A
C850        H854   1.083       .  S
C855        C856   1.403       .  A
C855        C860   1.398       .  A
C855        H861   1.083       .  S
C856        C857   1.406       .  A
C857        C858   1.404       .  A
C857        H862   1.083       .  S
C858        C859   1.412       .  A
C858        H863   1.078       .  S
C859        C860   1.410       .  A
C860        H864   1.083       .  S
C865        C866   1.405       .  A
C865        C870   1.398       .  A
C865        H871   1.083       .  S
C866        C867   1.409       .  A
C867        C868   1.405       .  A
C867        H872   1.083       .  S
C868        C869   1.403       .  A
C868        H873   1.082       .  S
C869        C870   1.405       .  A
C870        H874   1.083       .  S
C875        C876   1.410       .  A
C875        C880   1.414       .  A
C875        H881   1.083       .  S
C876        C877   1.404       .  A
C877        C878   1.394       .  A
C877        H882   1.084       .  S
C878        C879   1.405       .  A
C878        H883   1.083       .  S
C879        C880   1.408       .  A
C880        H884   1.083       .  S
C885        C886   1.403       .  A
C885        C890   1.404       .  A
C885        H891   1.082       .  S
C886        C887   1.409       .  A
C887        C888   1.398       .  A
C887        H892   1.083       .  S
C888        C889   1.403       .  A
C888        H893   1.083       .  S
C889        C890   1.411       .  A
C890        H894   1.083       .  S
C895        C896   1.403       .  A
C895        C900   1.404       .  A
C895        H901   1.083       .  S
C896        C897   1.409       .  A
C897        C898   1.394       .  A
C897        H902   1.083       .  S
C898        C899   1.397       .  A
C898        H903   1.083       .  S
C899        C900   1.409       .  A
C900        H904   1.083       .  S
C905        C906   1.398       .  A
C905        C910   1.391       .  A
C905        H911   1.083       .  S
C906        C907   1.409       .  A
C907        C908   1.400       .  A
C907        H912   1.083       .  S
C908        C909   1.406       .  A
C908        H913   1.079       .  S
C909        C910   1.411       .  A
C910        H914   1.083       .  S
C915        C916   1.407       .  A
C915        C920   1.402       .  A
C915        H921   1.083       .  S
C916        C917   1.404       .  A
C917        C918   1.397       .  A
C917        H922   1.083       .  S
C918        C919   1.405       .  A
C918        H923   1.083       .  S
C919        C920   1.403       .  A
C920        H924   1.083       .  S
C925        C926   1.407       .  A
C925        C930   1.393       .  A
C925        H931   1.084       .  S
C926        C927   1.407       .  A
C927        C928   1.408       .  A
C927        H932   1.083       .  S
C928        C929   1.406       .  A
C928        H933   1.082       .  S
C929        C930   1.400       .  A
C930        H934   1.083       .  S
C935        C936   1.404       .  A
C935        C940   1.395       .  A
C935        H941   1.083       .  S
C936        C937   1.408       .  A
C937        C938   1.409       .  A
C937        H942   1.083       .  S
C938        C939   1.407       .  A
C938        H943   1.083       .  S
C939        C940   1.405       .  A
C940        H944   1.083       .  S
C945        C946   1.406       .  A
C945        C950   1.393       .  A
C945        H951   1.083       .  S
C946        C947   1.403       .  A
C947        C948   1.401       .  A
C947        H952   1.083       .  S
C948        C949   1.407       .  A
C948        H953   1.083       .  S
C949        C950   1.401       .  A
C950        H954   1.083       .  S
C955        C956   1.398       .  A
C955        C960   1.395       .  A
C955        H961   1.084       .  S
C956        C957   1.404       .  A
C957        C958   1.407       .  A
C957        H962   1.083       .  S
C958        C959   1.408       .  A
C958        H963   1.083       .  S
C959        C960   1.410       .  A
C960        H964   1.083       .  S
C965        C966   1.404       .  A
C965        C970   1.395       .  A
C965        H971   1.083       .  S
C966        C967   1.400       .  A
C967        C968   1.398       .  A
C967        H972   1.083       .  S
C968        C969   1.414       .  A
C968        H973   1.077       .  S
C969        C970   1.407       .  A
C970        H974   1.083       .  S
C975        C976   1.407       .  A
C975        C980   1.395       .  A
C975        H981   1.083       .  S
C976        C977   1.411       .  A
C977        C978   1.396       .  A
C977        H982   1.079       .  S
C978        C979   1.402       .  A
C978        H983   1.083       .  S
C979        C980   1.404       .  A
C980        H984   1.083       .  S
C985        C986   1.407       .  A
C985        C990   1.396       .  A
C985        H991   1.083       .  S
C986        C987   1.401       .  A
C987        C988   1.392       .  A
C987        H992   1.083       .  S
C988        C989   1.406       .  A
C988        H993   1.083       .  S
C989        C990   1.401       .  A
C990        H994   1.083       .  S
C995        C996   1.403       .  A
C995       C1000   1.397       .  A
C995       H1001   1.084       .  S
C996        C997   1.406       .  A
C997        C998   1.402       .  A
C997       H1002   1.083       .  S
C998        C999   1.403       .  A
C998       H1003   1.083       .  S
C999       C1000   1.406       .  A
C1000      H1004   1.083       .  S
C1005      C1006   1.409       .  A
C1005      C1010   1.399       .  A
C1005      H1011   1.083       .  S
C1006      C1007   1.404       .  A
C1007      C1008   1.404       .  A
C1007      H1012   1.083       .  S
C1008      C1009   1.407       .  A
C1008      H1013   1.083       .  S
C1009      C1010   1.400       .  A
C1010      H1014   1.084       .  S
C1015      C1016   1.402       .  A
C1015      C1020   1.394       .  A
C1015      H1021   1.083       .  S
C1016      C1017   1.404       .  A
C1017      C1018   1.402       .  A
C1017      H1022   1.083       .  S
C1018      C1019   1.412       .  A
C1018      H1023   1.077       .  S
C1019      C1020   1.408       .  A
C1020      H1024   1.083       .  S
C1025      C1026   1.403       .  A
C1025      C1030   1.398       .  A
C1025      H1031   1.083       .  S
C1026      C1027   1.407       .  A
C1027      C1028   1.404       .  A
C1027      H1032   1.083       .  S
C1028      C1029   1.411       .  A
C1028      H1033   1.083       .  S
C1029      C1030   1.412       .  A
C1030      H1034   1.077       .  S
C1035      C1036   1.407       .  A
C1035      C1040   1.405       .  A
C1035      H1041   1.083       .  S
C1036      C1037   1.404       .  A
C1037      C1038   1.389       .  A
C1037      H1042   1.084       .  S
C1038      C1039   1.402       .  A
C1038      H1043   1.084       .  S
C1039      C1040   1.403       .  A
C1040      H1044   1.082       .  S
C1045      C1046   1.412       .  A
C1045      C1050   1.405       .  A
C1045      H1051   1.083       .  S
C1046      C1047   1.406       .  A
C1047      C1048   1.403       .  A
C1047      H1052   1.083       .  S
C1048      C1049   1.406       .  A
C1048      H1053   1.083       .  S
C1049      C1050   1.401       .  A
C1050      H1054   1.083       .  S
C1055      C1056   1.402       .  A
C1055      C1060   1.399       .  A
C1055      H1061   1.083       .  S
C1056      C1057   1.408       .  A
C1057      C1058   1.394       .  A
C1057      H1062   1.083       .  S
C1058      C1059   1.398       .  A
C1058      H1063   1.084       .  S
C1059      C1060   1.406       .  A
C1060      H1064   1.083       .  S
