geometry optimzed in LAMMPS
_audit_creation_date              2020-11-30 
_audit_creation_method            'lammps2cif' 
_symmetry_space_group_name_H-M    'P1' 
_symmetry_Int_Tables_number       1 
_symmetry_cell_setting            triclinic 
loop_ 
_symmetry_equiv_pos_as_xyz 
  x,y,z 
_cell_length_a                    24.66703875 
_cell_length_b                    38.038071487914145 
_cell_length_c                    29.608679981440016 
_cell_angle_alpha                 92.16691254181622 
_cell_angle_beta                  96.84844136644564 
_cell_angle_gamma                 89.79017944588453 
loop_ 
_atom_site_label 
_atom_site_type_symbol 
_atom_site_fract_x 
_atom_site_fract_y 
_atom_site_fract_z 
_atom_site_charge 
O1          O  0.45228022  0.21648805  0.03726371    -0.73700
O2          O  0.56149231  0.29016968  0.04532442    -0.73700
O3          O  0.45002177  0.28798235  0.04762009    -0.73800
O4          O  0.56304901  0.21904792  0.03449565    -0.73800
O5          O  0.54680964  0.22331705  0.95921849    -0.73800
O6          O  0.43365588  0.29190656  0.97234169    -0.73700
O7          O  0.54538182  0.29434198  0.97009558    -0.73700
O8          O  0.43622298  0.22036014  0.96198961    -0.73800
Ni9        Ni  0.50700935  0.25330632  0.04381392     1.25400
Ni10       Ni  0.49004338  0.25772222  0.96328763     1.25400
C11         C  0.42603771  0.20633073  0.99883851     0.88500
C12         C  0.57284178  0.30356227  0.00847306     0.88400
C13         C  0.42235352  0.30070774  0.01238602     0.88500
C14         C  0.57423015  0.21044352  0.99434841     0.88600
O15         O  0.94933392  0.47947755  0.04721117    -0.73700
O16         O  0.06359560  0.04459264  0.03488556    -0.73700
O17         O  0.95114042  0.04809102  0.03634046    -0.73800
O18         O  0.06126492  0.47488955  0.04485465    -0.73800
O19         O  0.04583517  0.46489400  0.96983972    -0.73800
O20         O  0.93581962  0.03804624  0.96130435    -0.73700
O21         O  0.04790409  0.03487353  0.95979188    -0.73700
O22         O  0.93378643  0.46855411  0.97232065    -0.73800
Ni23       Ni  0.00721972  0.51238428  0.04171743     1.25400
Ni24       Ni  0.99060208  0.00113629  0.96443925     1.25400
C25         C  0.92080658  0.46473364  0.01253689     0.88500
C26         C  0.07590747  0.04965626  0.99476497     0.88400
C27         C  0.92322739  0.05376199  0.99772007     0.88500
C28         C  0.07299722  0.45853559  0.00855936     0.88600
O29         O  0.13096302  0.07821698  0.94732937    -0.80200
O30         O  0.35320418  0.16798189  0.96240382    -0.64800
O31         O  0.24494701  0.09467278  0.96994711    -1.11400
C32         C  0.19876135  0.16732797  0.09427585     1.06700
O33         O  0.37269372  0.16772274  0.03652094    -0.78100
O34         O  0.31687376  0.13505733  0.09596758    -0.65600
Ni35       Ni  0.19616101  0.08075308  0.91725384     1.34900
C36         C  0.29348916  0.10534116  0.09579529     0.85500
O37         O  0.33168755  0.10434324  0.91664933    -0.78600
O38         O  0.25501466  0.07990714  0.88044545    -0.88900
C39         C  0.38210906  0.17926356  0.99866646     0.85000
O40         O  0.17824488  0.12791187  0.90213410    -0.67100
O41         O  0.24119361  0.18560575  0.09056218    -0.86400
C42         C  0.21295165  0.14888607  0.88985273     0.85900
C43         C  0.30523784  0.08816310  0.88207383     1.07400
H44         H  0.24121335  0.17415189  0.99454618     0.39200
O45         O  0.26203160  0.15521111  0.00898069    -1.09000
O46         O  0.25723533  0.09449625  0.06399053    -0.65700
Ni47       Ni  0.21115844  0.11867845  0.01732208     1.26300
O48         O  0.25830426  0.15486706  0.91408058    -0.65900
O49         O  0.18016663  0.14333499  0.06539371    -0.78200
C50         C  0.12429198  0.07127716  0.98789822     0.85300
O51         O  0.15843719  0.08178846  0.02128184    -0.65400
Ni52       Ni  0.30495976  0.17594239  0.06099907     1.27400
Ni53       Ni  0.29893031  0.13072519  0.96359077     1.26100
H54         H  0.26358765  0.07393496  0.98164483     0.39800
O55         O  0.85480579  0.08216703  0.03504578    -0.80200
O56         O  0.65216778  0.17547042  0.02084228    -0.64800
O57         O  0.74853778  0.09897184  0.99937092    -1.11400
C58         C  0.80807538  0.17153566  0.89103747     1.06700
O59         O  0.62798176  0.17777289  0.94694605    -0.78100
O60         O  0.67874480  0.13320412  0.89214434    -0.65600
Ni61       Ni  0.78154266  0.07233314  0.04823932     1.34900
C62         C  0.71393149  0.11147416  0.88012761     0.85500
O63         O  0.66255726  0.11113493  0.05279860    -0.78600
O64         O  0.71072077  0.06163462  0.06700648    -0.88900
C65         C  0.62047703  0.18665769  0.98748103     0.85000
O66         O  0.78895640  0.10823438  0.09459153    -0.67100
O67         O  0.75843687  0.18150545  0.88884613    -0.86400
C68         C  0.77198918  0.13954206  0.09865121     0.85900
C69         C  0.67218956  0.08305827  0.07441607     1.07400
H70         H  0.75874943  0.18115285  0.98807849     0.39200
O71         O  0.74001961  0.16132576  0.97191469    -1.09000
O72         O  0.75668578  0.10404309  0.90657170    -0.65700
Ni73       Ni  0.79282869  0.12499512  0.96281253     1.26300
O74         O  0.74680486  0.15594088  0.06553768    -0.65900
O75         O  0.83127272  0.15296634  0.92330770    -0.78200
C76         C  0.87305482  0.07605755  0.99715572     0.85300
O77         O  0.84774798  0.08797250  0.96062003    -0.65400
Ni78       Ni  0.69575197  0.17834689  0.92038606     1.27400
Ni79       Ni  0.70068849  0.13667104  0.01237474     1.26100
H80         H  0.72698472  0.08235831  0.97931314     0.39800
O81         O  0.63076052  0.33860689  0.97043590    -0.80200
O82         O  0.84412232  0.42716815  0.98747056    -0.64800
O83         O  0.74105705  0.35381788  0.00050171    -1.11400
C84         C  0.68319820  0.42073043  0.12054655     1.06700
O85         O  0.85530797  0.44776939  0.05910008    -0.78100
O86         O  0.81797241  0.39342437  0.10158926    -0.65600
Ni87       Ni  0.70033981  0.33205487  0.94793851     1.34900
C88         C  0.78829698  0.37171895  0.11855066     0.85500
O89         O  0.82882727  0.36338814  0.94997235    -0.78600
O90         O  0.76552859  0.32390736  0.91969460    -0.88900
C91         C  0.87081727  0.44497700  0.01980428     0.85000
O92         O  0.68632922  0.37256351  0.91259615    -0.67100
O93         O  0.73072216  0.43390689  0.12267411    -0.86400
C94         C  0.71198429  0.40124808  0.91094381     0.85900
C95         C  0.81108493  0.33978669  0.92004156     1.07400
H96         H  0.72870078  0.43522518  0.01759891     0.39200
O97         O  0.74952819  0.41703716  0.03370348    -1.09000
O98         O  0.74442587  0.35967210  0.09588003    -0.65700
Ni99       Ni  0.70008671  0.37831762  0.04247508     1.26300
O100        O  0.75009451  0.41152868  0.94115268    -0.65900
O101        O  0.66066036  0.40380249  0.08532496    -0.78200
C102        C  0.61983817  0.32840911  0.00856846     0.85300
O103        O  0.64962487  0.33906367  0.04478650    -0.65400
Ni104      Ni  0.79020792  0.43846766  0.08669280     1.27400
Ni105      Ni  0.79136758  0.39062393  0.99247692     1.26100
H106        H  0.76150834  0.33537610  0.01636257     0.39800
O107        O  0.36998426  0.33521870  0.05932656    -0.80200
O108        O  0.14682302  0.42292249  0.04620784    -0.64800
O109        O  0.25636283  0.34982814  0.03680585    -1.11400
C110        C  0.31663140  0.42536770  0.92710184     1.06700
O111        O  0.13681345  0.42509984  0.97143502    -0.78100
O112        O  0.20105368  0.39792891  0.91120977    -0.65600
Ni113      Ni  0.30392730  0.33627269  0.08856574     1.34900
C114        C  0.21809964  0.36651084  0.90890546     0.85500
O115        O  0.16711851  0.35931267  0.08810905    -0.78600
O116        O  0.24332017  0.33452128  0.12283306    -0.88900
C117        C  0.12087548  0.43406438  0.00941013     0.85000
O118        O  0.32025374  0.38328201  0.11061962    -0.67100
O119        O  0.27779902  0.44638030  0.93490198    -0.86400
C120        C  0.28444707  0.40406286  0.12366266     0.85900
C121        C  0.19294328  0.34260801  0.12116084     1.07400
H122        H  0.26612059  0.42819859  0.02357674     0.39200
O123        O  0.24421572  0.41071902  0.00512082    -1.09000
O124        O  0.24442542  0.35142805  0.94264828    -0.65700
Ni125      Ni  0.29259664  0.37305027  0.99291956     1.26300
O126        O  0.23978999  0.40963712  0.09879344    -0.65900
O127        O  0.32729487  0.39738674  0.94887735    -0.78200
C128        C  0.37579612  0.32466951  0.01898340     0.85300
O129        O  0.34230762  0.33435988  0.98566617    -0.65400
Ni130      Ni  0.20847538  0.43536989  0.95557477     1.27400
Ni131      Ni  0.20250130  0.38601238  0.04497939     1.26100
H132        H  0.23796083  0.32903236  0.02285681     0.39800
N133        N  0.99816329  0.19333369  0.43180151    -0.35900
N134        N  0.09238920  0.17107574  0.49146218    -0.56400
N135        N  0.01938453  0.16773629  0.56113430    -0.35900
N136        N  0.92574904  0.19262885  0.50086211    -0.56400
C137        C  0.03853486  0.19809700  0.40554517     0.27700
C138        C  0.95207360  0.20693141  0.40979821     0.27700
C139        C  0.06937169  0.16581137  0.58540477     0.27700
C140        C  0.98413996  0.17826074  0.59069205     0.27700
C141        C  0.11350561  0.16686710  0.45165019     0.36300
C142        C  0.12554509  0.15375181  0.52266983     0.36300
C143        C  0.88755835  0.19256998  0.46421168     0.36300
C144        C  0.90004841  0.18385875  0.53652011     0.36300
C145        C  0.01803005  0.21610666  0.36726894    -0.21200
C146        C  0.96355988  0.22123693  0.36971023    -0.21200
C147        C  0.06563967  0.17543098  0.63061020    -0.21200
C148        C  0.01204997  0.18297925  0.63397904    -0.21200
C149        C  0.16129336  0.14736184  0.45778090    -0.22200
C150        C  0.16917428  0.13925573  0.50313374    -0.22200
C151        C  0.83677878  0.18472741  0.47681318    -0.22200
C152        C  0.84462495  0.17968374  0.52309303    -0.22200
C153        C  0.08963406  0.18058310  0.41025135    -0.17600
C154        C  0.89876113  0.20012907  0.41999559    -0.17600
C155        C  0.92669890  0.18034180  0.58086736    -0.17600
C156        C  0.11753056  0.15283549  0.56886540    -0.17600
H157        H  0.03891483  0.22223666  0.33841610     0.15300
H158        H  0.93509774  0.23235377  0.34343161     0.15300
H159        H  0.09797894  0.17662871  0.65866224     0.15300
H160        H  0.99555647  0.19080370  0.66509786     0.15300
H161        H  0.18761287  0.13973916  0.43235453     0.13600
H162        H  0.20276546  0.12430363  0.51972077     0.13600
H163        H  0.79830913  0.18303006  0.45504617     0.13600
H164        H  0.81353309  0.17293720  0.54418046     0.13600
H165        H  0.99929835  0.17565762  0.45768399     0.26900
H166        H  0.00879581  0.15781074  0.52807826     0.26900
N167        N  0.97772307  0.31637459  0.44964674    -0.35900
N168        N  0.07328262  0.29717721  0.50866355    -0.56400
N169        N  0.00094747  0.29716083  0.57869085    -0.35900
N170        N  0.90394256  0.31515921  0.52039727    -0.56400
C171        C  0.01366220  0.30876701  0.41950183     0.27700
C172        C  0.92729621  0.31607116  0.42609759     0.30900
C173        C  0.04664570  0.28198532  0.59904602     0.27700
C174        C  0.96113159  0.29260863  0.60553319     0.27700
C175        C  0.09796320  0.30846290  0.47357982     0.36300
C176        C  0.11079463  0.29893104  0.54574101     0.36300
C177        C  0.87285533  0.33311290  0.48845402     0.36300
C178        C  0.88698575  0.32437308  0.56094042     0.36300
C179        C  0.98559631  0.30320517  0.37640690    -0.21200
C180        C  0.93117752  0.30713695  0.38070347    -0.21200
C181        C  0.03504636  0.26646436  0.63841366    -0.21200
C182        C  0.98126794  0.27312715  0.64247132    -0.21200
C183        C  0.15239340  0.31588234  0.48779539    -0.22200
C184        C  0.16043132  0.31018422  0.53394686    -0.22200
C185        C  0.83409096  0.35282454  0.50835170    -0.22200
C186        C  0.84325431  0.34738754  0.55459957    -0.22200
C187        C  0.07115265  0.31120135  0.42908558    -0.17600
C188        C  0.88061443  0.33176045  0.44197401    -0.17600
C189        C  0.91224699  0.31238391  0.60298706    -0.17600
C190        C  0.09982776  0.29016299  0.58965210    -0.17600
H191        H  0.00234805  0.29794422  0.34471019     0.15300
H192        H  0.89841443  0.30600765  0.35289733     0.15300
H193        H  0.06314388  0.25403777  0.66374608     0.15300
H194        H  0.96085529  0.26715205  0.67161175     0.15300
H195        H  0.18261747  0.32510113  0.46733699     0.13600
H196        H  0.19823076  0.31389898  0.55621297     0.13600
H197        H  0.80355385  0.36995477  0.49152743     0.13600
H198        H  0.82116170  0.35954201  0.58052069     0.13600
H199        H  0.98762689  0.32761572  0.48209370     0.26900
H200        H  0.00030652  0.31612492  0.55430748     0.26900
N201        N  0.47531369  0.43305112  0.45599629    -0.35900
N202        N  0.40450330  0.43938741  0.52762914    -0.56400
N203        N  0.50360014  0.45358314  0.58594452    -0.35900
N204        N  0.57454893  0.44903073  0.51440973    -0.56400
C205        C  0.42517532  0.43799098  0.43329095     0.27700
C206        C  0.51200198  0.43962496  0.42686744     0.27700
C207        C  0.46488189  0.45963163  0.61395307     0.27700
C208        C  0.55063597  0.46779461  0.60671669     0.27700
C209        C  0.36901627  0.42480883  0.49412143     0.36300
C210        C  0.38635736  0.43179121  0.56730898     0.36300
C211        C  0.59611348  0.43351703  0.47882639     0.36300
C212        C  0.61179282  0.44610411  0.55129160     0.36300
C213        C  0.43028821  0.44896182  0.38979952    -0.21200
C214        C  0.48506977  0.45001310  0.38581121    -0.21200
C215        C  0.48676956  0.47919393  0.65208946    -0.21200
C216        C  0.54071441  0.48439127  0.64758147    -0.21200
C217        C  0.32641555  0.40900578  0.51227758    -0.22200
C218        C  0.33772339  0.41320851  0.55907819    -0.22200
C219        C  0.64832028  0.42154265  0.49276759    -0.22200
C220        C  0.65835488  0.42962745  0.53894200    -0.22200
C221        C  0.37584925  0.42633993  0.44775762    -0.17600
C222        C  0.56802040  0.43094471  0.43436760    -0.17600
C223        C  0.60301106  0.45799951  0.59562806    -0.17600
C224        C  0.41420024  0.44196658  0.61012943    -0.17600
H225        H  0.39791869  0.45367631  0.36273224     0.15300
H226        H  0.50295050  0.45583996  0.35529690     0.15300
H227        H  0.46694349  0.48672910  0.68165460     0.15300
H228        H  0.56967808  0.49695955  0.67333871     0.15300
H229        H  0.29170163  0.39534465  0.49385185     0.13600
H230        H  0.31331930  0.40352465  0.58400212     0.13600
H231        H  0.67572837  0.40785910  0.47218975     0.13600
H232        H  0.69510833  0.42349089  0.56098868     0.13600
H233        H  0.48361709  0.41973580  0.48611951     0.26900
H234        H  0.50087069  0.43456930  0.55964340     0.26900
N235        N  0.50096438  0.06061317  0.41981707    -0.35900
N236        N  0.43414943  0.06687421  0.49261342    -0.56400
N237        N  0.53481882  0.07809743  0.55266702    -0.35900
N238        N  0.60249706  0.07011893  0.47849738    -0.56400
C239        C  0.45204444  0.04931954  0.39897090     0.27700
C240        C  0.53880723  0.05110215  0.39227606     0.27700
C241        C  0.49866678  0.07295221  0.58289448     0.27700
C242        C  0.58552573  0.07488035  0.57530945     0.27700
C243        C  0.39460331  0.07025009  0.45740206     0.36300
C244        C  0.41267637  0.07763458  0.53056413     0.36300
C245        C  0.62113962  0.07526428  0.43816862     0.36300
C246        C  0.64057537  0.08314369  0.51127231     0.36300
C247        C  0.45943166  0.03165816  0.35821780    -0.21200
C248        C  0.51412906  0.03260089  0.35421395    -0.21200
C249        C  0.52674906  0.06647118  0.62510246    -0.21200
C250        C  0.58123795  0.06745406  0.62033124    -0.21200
C251        C  0.34712045  0.08269423  0.47304928    -0.22200
C252        C  0.35848445  0.08706947  0.51974893    -0.22200
C253        C  0.67234264  0.09075282  0.44523741    -0.22200
C254        C  0.68493535  0.09552119  0.49187964    -0.22200
C255        C  0.40098177  0.06011357  0.41201958    -0.17600
C256        C  0.59190003  0.06527235  0.39572299    -0.17600
C257        C  0.63529754  0.08299646  0.55822202    -0.17600
C258        C  0.44125713  0.07713347  0.57469284    -0.17600
H259        H  0.42887619  0.02043293  0.33267196     0.15300
H260        H  0.53315476  0.02276439  0.32513932     0.15300
H261        H  0.50991254  0.06228612  0.65658906     0.15300
H262        H  0.61379026  0.06418319  0.64765267     0.15300
H263        H  0.30833222  0.08753986  0.45306851     0.13600
H264        H  0.33034765  0.09627263  0.54299011     0.13600
H265        H  0.69780139  0.09775728  0.41960735     0.13600
H266        H  0.72195319  0.10715128  0.50942468     0.13600
H267        H  0.50661466  0.07967496  0.44602882     0.26900
H268        H  0.52575422  0.08817939  0.52055483     0.26900
C269        C  0.34152185  0.41462665  0.24723409    -0.27500
C270        C  0.29322049  0.41417504  0.26813847     0.06100
C271        C  0.24291282  0.41754423  0.24115797     0.25800
C272        C  0.24099485  0.41863234  0.19375886    -0.12000
C273        C  0.28910904  0.41575724  0.17238396    -0.25900
C274        C  0.33963994  0.41519028  0.19986940     0.36600
C275        C  0.29675723  0.40972073  0.31795111     0.06200
F276        F  0.19556680  0.41720965  0.26025510    -0.19700
H277        H  0.20134797  0.41868045  0.17362949     0.16000
F278        F  0.38706746  0.41324562  0.18091169    -0.23400
H279        H  0.38090042  0.41327396  0.26767725     0.17800
C280        C  0.32878015  0.38248099  0.33795321     0.25800
C281        C  0.34653252  0.38432274  0.38449903    -0.11900
C282        C  0.33327031  0.41359581  0.41133007    -0.26000
C283        C  0.29324666  0.43713368  0.39314547     0.36700
C284        C  0.27533433  0.43536501  0.34631908    -0.27600
F285        F  0.34757488  0.35614040  0.31176145    -0.19700
H286        H  0.37697255  0.36570334  0.39816638     0.16000
F287        F  0.27831624  0.96284006  0.42321558    -0.23400
H288        H  0.24949821  0.45611374  0.33170256     0.17800
C289        C  0.41937199  0.41109740  0.72963426    -0.27500
C290        C  0.37389970  0.42804951  0.74492466     0.06100
C291        C  0.33613281  0.44453169  0.71279859     0.25800
C292        C  0.34653257  0.44663429  0.66739119    -0.12000
C293        C  0.39424014  0.43196309  0.65336434    -0.25900
C294        C  0.42887964  0.41240994  0.68425168     0.36600
C295        C  0.36705054  0.42910611  0.79432493     0.06200
F296        F  0.29000424  0.45948797  0.72552908    -0.19700
H297        H  0.31669724  0.95813765  0.64615305     0.16000
F298        F  0.47430048  0.39670629  0.67109709    -0.23400
H299        H  0.44919398  0.39815852  0.75321624     0.17800
C300        C  0.37607530  0.39892266  0.82019598     0.25800
C301        C  0.36646533  0.39967996  0.86571376    -0.11900
C302        C  0.34526630  0.42997846  0.88624488    -0.26000
C303        C  0.33992699  0.46088341  0.86142044     0.36700
C304        C  0.35137957  0.46044596  0.81610840    -0.27600
F305        F  0.38990903  0.36778544  0.80072634    -0.19700
H306        H  0.37050962  0.37520795  0.88336955     0.16000
F307        F  0.32112596  0.49098584  0.88007689    -0.23400
H308        H  0.34643411  0.48445098  0.79756209     0.17800
C309        C  0.18273617  0.30831674  0.23755640    -0.27500
C310        C  0.14173014  0.32915881  0.25335779     0.06100
C311        C  0.11335866  0.35280585  0.22337939     0.25800
C312        C  0.12660523  0.35541124  0.17858258    -0.12000
C313        C  0.16799593  0.33431541  0.16295878    -0.25900
C314        C  0.19471345  0.30991262  0.19297859     0.36600
C315        C  0.12916303  0.32498582  0.30089455     0.06200
F316        F  0.07355212  0.37372656  0.23752713    -0.19700
H317        H  0.10642345  0.37505681  0.15699052     0.16000
F318        F  0.23489638  0.28857785  0.18016993    -0.23400
H319        H  0.20675129  0.29116019  0.26043757     0.17800
C320        C  0.12294742  0.29109439  0.31737418     0.25800
C321        C  0.11170643  0.28684244  0.36192419    -0.11900
C322        C  0.10261733  0.31609549  0.39001113    -0.26000
C323        C  0.11115925  0.34996089  0.37474088     0.36700
C324        C  0.12500273  0.35432756  0.33064247    -0.27600
F325        F  0.12376981  0.26208926  0.28944428    -0.19700
H326        H  0.10573842  0.26070675  0.37347188     0.16000
F327        F  0.10372897  0.37874517  0.40178407    -0.23400
H328        H  0.13122907  0.38061199  0.31940514     0.17800
C329        C  0.22280685  0.35753788  0.78265667    -0.27500
C330        C  0.19735002  0.32518904  0.77053595     0.06100
C331        C  0.18297492  0.30399395  0.80561255     0.25800
C332        C  0.19202960  0.31611785  0.85153927    -0.12000
C333        C  0.21297640  0.35003232  0.86249479    -0.25900
C334        C  0.22808050  0.37047678  0.82733056     0.36600
C335        C  0.18099803  0.31638833  0.72126757     0.06200
F336        F  0.15730005  0.27270271  0.79547273    -0.19700
H337        H  0.17981369  0.30000800  0.87796730     0.16000
F338        F  0.24601909  0.40397643  0.83571980    -0.23400
H339        H  0.23611649  0.37397122  0.75697646     0.17800
C340        C  0.15788724  0.34259449  0.69227845     0.25800
C341        C  0.13830812  0.33417258  0.64714431    -0.11900
C342        C  0.13935957  0.29945145  0.63003059    -0.26000
C343        C  0.16476710  0.27353126  0.65775263     0.36700
C344        C  0.18592730  0.28201068  0.70294296    -0.27600
F345        F  0.14950929  0.37583003  0.70836232    -0.19700
H346        H  0.11731810  0.35424516  0.62668630     0.16000
F347        F  0.16370266  0.23951370  0.64260991    -0.23400
H348        H  0.20405092  0.26141337  0.72405509     0.17800
C349        C  0.73602100  0.44687135  0.80431730    -0.27500
C350        C  0.68629504  0.43997729  0.77735725     0.06100
C351        C  0.64213971  0.42690452  0.79765750     0.25800
C352        C  0.64926181  0.41757526  0.84304039    -0.12000
C353        C  0.70035676  0.42135563  0.86915017    -0.25900
C354        C  0.74318410  0.43766155  0.85001791     0.36600
C355        C  0.68094497  0.44328483  0.72746577     0.06200
F356        F  0.59275495  0.42145329  0.77281525    -0.19700
H357        H  0.61564647  0.40532996  0.85697863     0.16000
F358        F  0.79347469  0.44144264  0.87386262    -0.23400
H359        H  0.77029005  0.45718603  0.78923679     0.17800
C360        C  0.68669523  0.47587559  0.70781464     0.25800
C361        C  0.66860091  0.47974654  0.66158389    -0.11900
C362        C  0.64425452  0.45137796  0.63500447    -0.26000
C363        C  0.64443450  0.41800979  0.65363680     0.36700
C364        C  0.66300186  0.41402200  0.69944554    -0.27600
F365        F  0.70341342  0.50464761  0.73424609    -0.19700
H366        H  0.66630883  0.50573991  0.64823735     0.16000
F367        F  0.61958359  0.39038562  0.62923353    -0.23400
H368        H  0.65906567  0.38858002  0.71400540     0.17800
C369        C  0.65791480  0.44665042  0.24058899    -0.27500
C370        C  0.63844860  0.41505345  0.25604296     0.06100
C371        C  0.62745596  0.38675249  0.22379624     0.25800
C372        C  0.63613197  0.39031728  0.17813083    -0.12000
C373        C  0.65853711  0.42131352  0.16385512    -0.25900
C374        C  0.67008836  0.44924237  0.19596040     0.36600
C375        C  0.62848537  0.41282458  0.30507593     0.06200
F376        F  0.61165383  0.35484127  0.23650356    -0.19700
H377        H  0.62965719  0.36768707  0.15478754     0.16000
F378        F  0.69639090  0.47838742  0.18494010    -0.23400
H379        H  0.66504381  0.46948088  0.26329366     0.17800
C380        C  0.66020165  0.43243168  0.34035956     0.25800
C381        C  0.64270315  0.43681883  0.38362659    -0.11900
C382        C  0.59560620  0.41971507  0.39372991    -0.26000
C383        C  0.56950071  0.39551817  0.36103079     0.36700
C384        C  0.58422738  0.39331439  0.31686284    -0.27600
F385        F  0.70748985  0.44813530  0.33296632    -0.19700
H386        H  0.66457815  0.45485643  0.40846276     0.16000
F387        F  0.52638131  0.37623956  0.37070302    -0.23400
H388        H  0.55854775  0.37780018  0.29155700     0.17800
C389        C  0.84286570  0.30230853  0.80671969    -0.27500
C390        C  0.86381253  0.33211300  0.78814787     0.06100
C391        C  0.87584968  0.36225872  0.81665787     0.25800
C392        C  0.86493645  0.36285010  0.86198036    -0.12000
C393        C  0.84022869  0.33391257  0.87950028    -0.25900
C394        C  0.83096229  0.30316731  0.85179805     0.36600
C395        C  0.87250908  0.33149797  0.73916320     0.06200
F396        F  0.89416671  0.39213971  0.79990995    -0.19700
H397        H  0.87129609  0.38719775  0.88207316     0.16000
F398        F  0.80753364  0.27465759  0.86765983    -0.23400
H399        H  0.83434457  0.27861188  0.78584885     0.17800
C400        C  0.92212011  0.34305281  0.72600847     0.25800
C401        C  0.93150071  0.34021557  0.68052702    -0.11900
C402        C  0.89330772  0.32383473  0.64731978    -0.26000
C403        C  0.84271429  0.31345766  0.65979780     0.36700
C404        C  0.83222685  0.31773219  0.70532307    -0.27600
F405        F  0.96341513  0.35450051  0.75748909    -0.19700
H406        H  0.97094697  0.34816754  0.67172432     0.16000
F407        F  0.80516871  0.29707179  0.62891339    -0.23400
H408        H  0.79349900  0.30883721  0.71454216     0.17800
C409        C  0.77987399  0.34304749  0.33946932    -0.27500
C410        C  0.81108328  0.36526997  0.31551703     0.06100
C411        C  0.85489986  0.38409017  0.34033010     0.25800
C412        C  0.86974102  0.37815804  0.38627153    -0.12000
C413        C  0.84478435  0.35126194  0.40751712    -0.25900
C414        C  0.79720064  0.33551117  0.38499115     0.36600
C415        C  0.80183836  0.36640899  0.26469329     0.06200
F416        F  0.88834506  0.40467284  0.31935896    -0.19700
H417        H  0.90683086  0.39032340  0.40305960     0.16000
F418        F  0.77133617  0.31005022  0.40514088    -0.23400
H419        H  0.74438305  0.32951708  0.32211711     0.17800
C420        C  0.78968219  0.33576195  0.23676205     0.25800
C421        C  0.78557427  0.33706048  0.18912027    -0.11900
C422        C  0.79701507  0.36830192  0.16856537    -0.26000
C423        C  0.81047028  0.39863845  0.19657084     0.36700
C424        C  0.81022605  0.39793535  0.24348726    -0.27600
F425        F  0.78369086  0.30423895  0.25527466    -0.19700
H426        H  0.77473478  0.31350202  0.16836594     0.16000
F427        F  0.82227728  0.42965832  0.17870046    -0.23400
H428        H  0.81751825  0.42231549  0.26329177     0.17800
C429        C  0.65139550  0.05379902  0.28418604    -0.27500
C430        C  0.61932174  0.07786581  0.25745180     0.06100
C431        C  0.58470924  0.10082365  0.27910542     0.25800
C432        C  0.58195312  0.09927681  0.32579769    -0.12000
C433        C  0.61140887  0.07386573  0.35180148    -0.25900
C434        C  0.64684314  0.05136213  0.33078676     0.36600
C435        C  0.62222169  0.07863688  0.20735209     0.06200
F436        F  0.55020307  0.12291743  0.25482655    -0.19700
H437        H  0.55283926  0.11593778  0.34108828     0.16000
F438        F  0.67396823  0.02556881  0.35451458    -0.23400
H439        H  0.67903699  0.03622075  0.26866772     0.17800
C440        C  0.62523108  0.11070932  0.18567822     0.25800
C441        C  0.63363020  0.11101946  0.13997839    -0.11900
C442        C  0.64353787  0.07966067  0.11540239    -0.26000
C443        C  0.63723586  0.04748031  0.13587764     0.36700
C444        C  0.62515150  0.04711095  0.18112470    -0.27600
F445        F  0.62582006  0.14194038  0.20946924    -0.19700
H446        H  0.63905696  0.13637445  0.12562279     0.16000
F447        F  0.64428572  0.01666297  0.11271837    -0.23400
H448        H  0.61992864  0.02217838  0.19641258     0.17800
C449        C  0.66709062  0.10625087  0.75382367    -0.27500
C450        C  0.71629567  0.09808971  0.73618273     0.06100
C451        C  0.76153878  0.08802379  0.76620710     0.25800
C452        C  0.75854195  0.08871333  0.81324769    -0.12000
C453        C  0.71047330  0.09961150  0.83132549    -0.25900
C454        C  0.66403630  0.10713437  0.80070880     0.36600
C455        C  0.71828997  0.09954136  0.68628901     0.06200
F456        F  0.80953550  0.07963787  0.75039094    -0.19700
H457        H  0.79530686  0.08317973  0.83566008     0.16000
F458        F  0.61640340  0.11722912  0.81600236    -0.23400
H459        H  0.63101949  0.11281675  0.73111934     0.17800
C460        C  0.69673387  0.12888913  0.66276704     0.25800
C461        C  0.67855866  0.12551286  0.61627622    -0.11900
C462        C  0.68178063  0.09290484  0.59295638    -0.26000
C463        C  0.71354234  0.06609307  0.61421407     0.36700
C464        C  0.73145453  0.06934373  0.66100116    -0.27600
F465        F  0.68745077  0.15946925  0.68574012    -0.19700
H466        H  0.65493902  0.14668756  0.60021485     0.16000
F467        F  0.71885580  0.03473722  0.59174849    -0.23400
H468        H  0.74962354  0.04678345  0.67816773     0.17800
C469        C  0.83606356  0.15494356  0.31303257    -0.27500
C470        C  0.81027693  0.18273824  0.28872386     0.06100
C471        C  0.80503706  0.21537964  0.31200569     0.25800
C472        C  0.82912841  0.22061578  0.35727130    -0.12000
C473        C  0.85744720  0.19308361  0.38005961    -0.25900
C474        C  0.85864309  0.15986265  0.35811728     0.36600
C475        C  0.79127497  0.17639055  0.23922076     0.06200
F476        F  0.77744867  0.24220727  0.29102950    -0.19700
H477        H  0.82865991  0.24658841  0.37353636     0.16000
F478        F  0.88673918  0.13299665  0.37893237    -0.23400
H479        H  0.84150809  0.12954293  0.29641265     0.17800
C480        C  0.80297053  0.19951383  0.20520665     0.25800
C481        C  0.79409468  0.18878480  0.15870563    -0.11900
C482        C  0.77644044  0.15437676  0.14599965    -0.26000
C483        C  0.76374231  0.13200446  0.18012569     0.36700
C484        C  0.76859040  0.14347330  0.22540611    -0.27600
F485        F  0.82656566  0.23125443  0.21674344    -0.19700
H486        H  0.80431347  0.20641316  0.13311440     0.16000
F487        F  0.74853194  0.09809179  0.17010024    -0.23400
H488        H  0.75795747  0.12532189  0.25029392     0.17800
C489        C  0.88013070  0.14950979  0.68860524    -0.27500
C490        C  0.87331098  0.18184734  0.71177642     0.06100
C491        C  0.87521339  0.21309590  0.68789941     0.25800
C492        C  0.88371784  0.21184185  0.64204579    -0.12000
C493        C  0.89507729  0.17982547  0.62033683    -0.25900
C494        C  0.89179667  0.14850287  0.64350043     0.36600
C495        C  0.86292669  0.18270654  0.76027671     0.06200
F496        F  0.87321888  0.24491610  0.70981234    -0.19700
H497        H  0.88640891  0.23610723  0.62457879     0.16000
F498        F  0.90373895  0.11722949  0.62342418    -0.23400
H499        H  0.87806934  0.12504578  0.70586736     0.17800
C500        C  0.82071846  0.20360562  0.77440025     0.25800
C501        C  0.80804294  0.20254450  0.81879398    -0.11900
C502        C  0.83514470  0.17950051  0.85026646    -0.26000
C503        C  0.87849100  0.15913551  0.83663460     0.36700
C504        C  0.89250860  0.16105083  0.79211965    -0.27600
F505        F  0.78830255  0.22288667  0.74433766    -0.19700
H506        H  0.77336508  0.21791860  0.82719285     0.16000
F507        F  0.90437299  0.13545256  0.86480701    -0.23400
H508        H  0.92520186  0.14458335  0.78198326     0.17800
C509        C  0.31770819  0.06043841  0.75955601    -0.27500
C510        C  0.36353399  0.07945795  0.75068570     0.06100
C511        C  0.39423513  0.09812395  0.78704589     0.25800
C512        C  0.37753609  0.09904874  0.83081552    -0.12000
C513        C  0.33025198  0.08112815  0.83922910    -0.25900
C514        C  0.30153285  0.06079625  0.80307934     0.36600
C515        C  0.37849283  0.07955056  0.70341891     0.06200
F516        F  0.44021601  0.11562798  0.78022822    -0.19700
H517        H  0.40035648  0.11497018  0.85760209     0.16000
F518        F  0.25627166  0.04209947  0.80901753    -0.23400
H519        H  0.29320720  0.04590793  0.73231958     0.17800
C520        C  0.38011706  0.04790526  0.67741997     0.25800
C521        C  0.39529511  0.04781496  0.63341920    -0.11900
C522        C  0.41070171  0.07910976  0.61500769    -0.26000
C523        C  0.40716092  0.11099033  0.64000669     0.36700
C524        C  0.39066552  0.11120672  0.68371441    -0.27600
F525        F  0.37037914  0.01682978  0.69575565    -0.19700
H526        H  0.39834863  0.02304881  0.61467840     0.16000
F527        F  0.42191519  0.14163366  0.62285883    -0.23400
H528        H  0.38842003  0.13603616  0.70252442     0.17800
C529        C  0.26778978  0.06058060  0.20275715    -0.27500
C530        C  0.31438754  0.07147245  0.23174747     0.06100
C531        C  0.35894084  0.08515946  0.21251212     0.25800
C532        C  0.35425388  0.09209943  0.16627743    -0.12000
C533        C  0.30533256  0.08517799  0.13792196    -0.25900
C534        C  0.26330815  0.06715582  0.15601234     0.36600
C535        C  0.31689982  0.07046286  0.28208401     0.06200
F536        F  0.40622990  0.09357481  0.23904080    -0.19700
H537        H  0.38766085  0.10536545  0.15332430     0.16000
F538        F  0.21596555  0.05886789  0.12963850    -0.23400
H539        H  0.23364269  0.04900900  0.21670398     0.17800
C540        C  0.33227781  0.10093963  0.30899750     0.25800
C541        C  0.35251208  0.09823826  0.35482481    -0.11900
C542        C  0.35629770  0.06530791  0.37456823    -0.26000
C543        C  0.33130706  0.03615157  0.35007859     0.36700
C544        C  0.31243954  0.03852517  0.30365617    -0.27600
F545        F  0.33290729  0.13276656  0.28979503    -0.19700
H546        H  0.37081286  0.12116559  0.37339327     0.16000
F547        F  0.33036099  0.50814691  0.36635736    -0.23400
H548        H  0.29957557  0.01484307  0.28385915     0.17800
C549        C  0.15476297  0.15153954  0.76713576    -0.27500
C550        C  0.20305495  0.15226076  0.74622935     0.06100
C551        C  0.25240193  0.16070076  0.77304382     0.25800
C552        C  0.25401381  0.16455311  0.82041822    -0.12000
C553        C  0.20659120  0.15965039  0.84185441    -0.25900
C554        C  0.15634943  0.15512195  0.81441540     0.36600
C555        C  0.20039243  0.14397510  0.69660163     0.06200
F556        F  0.29963662  0.16245087  0.75396185    -0.19700
H557        H  0.29346327  0.16796210  0.84045673     0.16000
F558        F  0.10929140  0.15157637  0.83337980    -0.23400
H559        H  0.11579138  0.14674552  0.74682711     0.17800
C560        C  0.17007526  0.11471611  0.67722602     0.25800
C561        C  0.15085358  0.11353973  0.63086228    -0.11900
C562        C  0.16190986  0.14147652  0.60364633    -0.26000
C563        C  0.20189532  0.16623373  0.62086233     0.36700
C564        C  0.22027070  0.16794994  0.66756113    -0.27600
F565        F  0.15385588  0.08949131  0.70398894    -0.19700
H566        H  0.12091388  0.09375710  0.61788413     0.16000
F567        F  0.21588650  0.19213263  0.59416434    -0.23400
H568        H  0.24502520  0.19013463  0.68148245     0.17800
C569        C  0.14253913  0.14083922  0.20038421    -0.27500
C570        C  0.15499612  0.17026846  0.22986909     0.06100
C571        C  0.17734233  0.20018251  0.21231613     0.25800
C572        C  0.18709884  0.20037994  0.16680800    -0.12000
C573        C  0.17469871  0.17088335  0.13758352    -0.25900
C574        C  0.15091665  0.14131913  0.15471982     0.36600
C575        C  0.14274341  0.16964056  0.27798674     0.06200
F576        F  0.19093304  0.22909679  0.23907056    -0.19700
H577        H  0.20645530  0.22317132  0.15483972     0.16000
F578        F  0.13930461  0.11170176  0.12839904    -0.23400
H579        H  0.12758991  0.11677209  0.21286004     0.17800
C580        C  0.09469382  0.15332449  0.28819881     0.25800
C581        C  0.08191469  0.15367655  0.33262274    -0.11900
C582        C  0.11387792  0.17269690  0.36746897    -0.26000
C583        C  0.16246424  0.18846177  0.35818238     0.36700
C584        C  0.17753592  0.18602819  0.31396610    -0.27600
F585        F  0.05752555  0.13931570  0.25495506    -0.19700
H586        H  0.04389606  0.14178068  0.33918838     0.16000
F587        F  0.19358969  0.20765485  0.39106242    -0.23400
H588        H  0.21563539  0.19787419  0.30778873     0.17800
O589        O  0.45225300  0.71675271  0.03578704    -0.73700
O590        O  0.56195087  0.79000559  0.04649041    -0.73700
O591        O  0.45079851  0.78794730  0.04904396    -0.73800
O592        O  0.56306045  0.71897626  0.03290060    -0.73800
O593        O  0.54671924  0.72483443  0.95790614    -0.73800
O594        O  0.43430834  0.79360930  0.97404270    -0.73700
O595        O  0.54564247  0.79579181  0.97150801    -0.73700
O596        O  0.43596910  0.72228505  0.96076591    -0.73800
Ni597      Ni  0.50736593  0.75321352  0.04367248     1.25400
Ni598      Ni  0.49021478  0.75941032  0.96343199     1.25400
C599        C  0.42563124  0.70762188  0.99711897     0.88500
C600        C  0.57292759  0.80434258  0.01016336     0.88400
C601        C  0.42324879  0.80158933  0.01441377     0.88500
C602        C  0.57406824  0.71107817  0.99248603     0.88600
O603        O  0.94886719  0.97886285  0.04945986    -0.73700
O604        O  0.06418058  0.54491855  0.03088386    -0.73700
O605        O  0.95185242  0.54859114  0.03352849    -0.73800
O606        O  0.06073328  0.97453104  0.04786790    -0.73800
O607        O  0.04598176  0.96491642  0.97274897    -0.73800
O608        O  0.93583780  0.53819331  0.95859118    -0.73700
O609        O  0.04778142  0.53473605  0.95591940    -0.73700
O610        O  0.93383902  0.96826346  0.97447407    -0.73800
Ni611      Ni  0.00657479  0.01191702  0.04472886     1.25400
Ni612      Ni  0.99050115  0.50119516  0.96155140     1.25400
C613        C  0.92069366  0.96418458  0.01459157     0.88500
C614        C  0.07612565  0.54971139  0.99053991     0.88400
C615        C  0.92353102  0.55403420  0.99503220     0.88500
C616        C  0.07286538  0.95843846  0.01152548     0.88600
O617        O  0.13241136  0.57685850  0.94241221    -0.80200
O618        O  0.35252978  0.66990755  0.95979357    -0.64800
O619        O  0.24558886  0.59566440  0.96651715    -1.11400
C620        C  0.19515004  0.66795581  0.08968790     1.06700
O621        O  0.37111439  0.66957901  0.03401025    -0.78100
O622        O  0.31618007  0.63547431  0.09175233    -0.65600
Ni623      Ni  0.19847408  0.58052979  0.91336518     1.34900
C624        C  0.29247107  0.60588705  0.09122838     0.85500
O625        O  0.33347415  0.60615118  0.91419473    -0.78600
O626        O  0.25822644  0.58040824  0.87745265    -0.88900
C627        C  0.38106683  0.68104327  0.99629833     0.85000
O628        O  0.17922062  0.62728857  0.89700459    -0.67100
O629        O  0.23900047  0.68536640  0.08812022    -0.86400
C630        C  0.21357398  0.64896355  0.88556580     0.85900
C631        C  0.30817842  0.58944747  0.87953376     1.07400
H632        H  0.24028559  0.67547033  0.99082776     0.39200
O633        O  0.26086870  0.65647872  0.00537051    -1.09000
O634        O  0.25505135  0.59577467  0.06008603    -0.65700
Ni635      Ni  0.21000104  0.61975508  0.01286358     1.26300
O636        O  0.25825920  0.65563666  0.91050046    -0.65900
O637        O  0.17706430  0.64450564  0.05985927    -0.78200
C638        C  0.12457342  0.57118576  0.98316047     0.85300
O639        O  0.15767295  0.58272235  0.01658606    -0.65400
Ni640      Ni  0.30301035  0.67685376  0.05819362     1.27400
Ni641      Ni  0.29899992  0.63218771  0.96054252     1.26100
H642        H  0.26457866  0.57526565  0.97889173     0.39800
O643        O  0.85481365  0.58208836  0.03249345    -0.80200
O644        O  0.65162293  0.67530707  0.01803340    -0.64800
O645        O  0.74830546  0.59881059  0.99669274    -1.11400
C646        C  0.80701262  0.66973019  0.88705909     1.06700
O647        O  0.62724900  0.67855081  0.94409306    -0.78100
O648        O  0.67725701  0.63129421  0.89111178    -0.65600
Ni649      Ni  0.78144961  0.57205759  0.04526919     1.34900
C650        C  0.71265363  0.60992477  0.87849880     0.85500
O651        O  0.66292481  0.61100110  0.05091723    -0.78600
O652        O  0.71058548  0.56106408  0.06341452    -0.88900
C653        C  0.62003980  0.68703773  0.98488127     0.85000
O654        O  0.78827396  0.60799561  0.09151991    -0.67100
O655        O  0.75703454  0.67902495  0.88439625    -0.86400
C656        C  0.77185444  0.63944126  0.09551008     0.85900
C657        C  0.67271536  0.58261575  0.07194485     1.07400
H658        H  0.75779688  0.68108262  0.98457799     0.39200
O659        O  0.73927905  0.66103660  0.96876419    -1.09000
O660        O  0.75630727  0.60326727  0.90422132    -0.65700
Ni661      Ni  0.79245241  0.62471155  0.96005670     1.26300
O662        O  0.74688925  0.65592809  0.06238108    -0.65900
O663        O  0.83078630  0.65238739  0.92025392    -0.78200
C664        C  0.87315406  0.57612085  0.99461658     0.85300
O665        O  0.84760614  0.58784854  0.95809470    -0.65400
Ni666      Ni  0.69477609  0.67724305  0.91679932     1.27400
Ni667      Ni  0.70031186  0.63647378  0.00967958     1.26100
H668        H  0.72669205  0.58219166  0.97669192     0.39800
O669        O  0.62994631  0.84060667  0.97331228    -0.80200
O670        O  0.84382303  0.92675626  0.98943628    -0.64800
O671        O  0.74001746  0.85412478  0.00305301    -1.11400
C672        C  0.68285837  0.92252666  0.12258708     1.06700
O673        O  0.85562278  0.94708907  0.06116958    -0.78100
O674        O  0.81695051  0.89417749  0.10535045    -0.65600
Ni675      Ni  0.69881997  0.83258776  0.95057381     1.34900
C676        C  0.78659926  0.87254330  0.12175737     0.85500
O677        O  0.82729593  0.86283377  0.95222911    -0.78600
O678        O  0.76374878  0.82327984  0.92243821    -0.88900
C679        C  0.87079949  0.94439389  0.02176403     0.85000
O680        O  0.68582616  0.87297105  0.91486656    -0.67100
O681        O  0.73016355  0.93588036  0.12421525    -0.86400
C682        C  0.71113691  0.90182641  0.91377537     0.85900
C683        C  0.80942044  0.83898664  0.92265483     1.07400
H684        H  0.72867180  0.93550907  0.01982420     0.39200
O685        O  0.74938689  0.91732570  0.03603299    -1.09000
O686        O  0.74338896  0.86028416  0.09836709    -0.65700
Ni687      Ni  0.69945365  0.87901852  0.04502712     1.26300
O688        O  0.74941109  0.91181599  0.94392812    -0.65900
O689        O  0.66042071  0.90483987  0.08793789    -0.78200
C690        C  0.61918008  0.82964758  0.01105715     0.85300
O691        O  0.64872495  0.84002140  0.04748147    -0.65400
Ni692      Ni  0.79012067  0.93909842  0.08863359     1.27400
Ni693      Ni  0.79069124  0.89053290  0.99481519     1.26100
H694        H  0.76021567  0.83558419  0.01892022     0.39800
O695        O  0.37029606  0.83436376  0.06274101    -0.80200
O696        O  0.14709265  0.92330090  0.04923918    -0.64800
O697        O  0.25716598  0.85061726  0.03926241    -1.11400
C698        C  0.31736301  0.92800764  0.93137967     1.06700
O699        O  0.13702819  0.92520608  0.97453394    -0.78100
O700        O  0.20227958  0.89924774  0.91423845    -0.65600
Ni701      Ni  0.30378394  0.83655080  0.09142510     1.34900
C702        C  0.22063281  0.86817223  0.91150889     0.85500
O703        O  0.16697987  0.85954300  0.08973802    -0.78600
O704        O  0.24293885  0.83549643  0.12566552    -0.88900
C705        C  0.12091190  0.93416756  0.01242894     0.85000
O706        O  0.32073590  0.88363306  0.11278340    -0.67100
O707        O  0.27758386  0.94834679  0.93879018    -0.86400
C708        C  0.28515039  0.90430270  0.12644975     0.85900
C709        C  0.19246666  0.84342192  0.12335141     1.07400
H710        H  0.26603536  0.92953731  0.02725412     0.39200
O711        O  0.24471579  0.91192313  0.00853878    -1.09000
O712        O  0.24738374  0.85317912  0.94511168    -0.65700
Ni713      Ni  0.29399642  0.87479635  0.99638080     1.26300
O714        O  0.24005898  0.90979962  0.10207370    -0.65900
O715        O  0.32901424  0.90019378  0.95336597    -0.78200
C716        C  0.37691256  0.82551575  0.02195256     0.85300
O717        O  0.34444627  0.83660672  0.98884453    -0.65400
Ni718      Ni  0.20849248  0.93641388  0.95902725     1.27400
Ni719      Ni  0.20296734  0.88663485  0.04766070     1.26100
H720        H  0.23904526  0.82995331  0.02464849     0.39800
N721        N  0.99614076  0.69902921  0.42842452    -0.35900
N722        N  0.09091915  0.67724119  0.48697823    -0.56400
N723        N  0.01872538  0.67396903  0.55726603    -0.35900
N724        N  0.92382993  0.69798818  0.49752697    -0.56400
C725        C  0.03599281  0.70335100  0.40163370     0.27700
C726        C  0.95051446  0.71392753  0.40758974     0.27700
C727        C  0.06881902  0.67268819  0.58151728     0.27700
C728        C  0.98280897  0.68289361  0.58696904     0.27700
C729        C  0.11078197  0.67177849  0.44678384     0.36300
C730        C  0.12495577  0.66085641  0.51849792     0.36300
C731        C  0.88601949  0.69729330  0.46057120     0.36300
C732        C  0.89865883  0.68714902  0.53250313     0.36300
C733        C  0.01589137  0.72236545  0.36417583    -0.21200
C734        C  0.96197061  0.72883761  0.36784008    -0.21200
C735        C  0.06450312  0.68121804  0.62694543    -0.21200
C736        C  0.01043052  0.68729526  0.63042801    -0.21200
C737        C  0.15878405  0.65252619  0.45292906    -0.22200
C738        C  0.16811825  0.64589772  0.49874643    -0.22200
C739        C  0.83590784  0.68700214  0.47231752    -0.22200
C740        C  0.84378406  0.68106859  0.51839590    -0.22200
C741        C  0.08578016  0.68457580  0.40520598    -0.17600
C742        C  0.89732119  0.70590380  0.41675041    -0.17600
C743        C  0.92523179  0.68355063  0.57687632    -0.17600
C744        C  0.11741422  0.66046433  0.56486532    -0.17600
H745        H  0.03662181  0.72835890  0.33517484     0.15300
H746        H  0.93333733  0.74059158  0.34219113     0.15300
H747        H  0.09674397  0.68226527  0.65510935     0.15300
H748        H  0.99348299  0.69371268  0.66177112     0.15300
H749        H  0.18435766  0.64421555  0.42724438     0.13600
H750        H  0.20216229  0.63140511  0.51544574     0.13600
H751        H  0.79791967  0.68412419  0.45009047     0.13600
H752        H  0.81318931  0.67237705  0.53885016     0.13600
H753        H  0.99674733  0.68041243  0.45318646     0.26900
H754        H  0.00856732  0.66436897  0.52403179     0.26900
N755        N  0.97289467  0.82434263  0.45216969    -0.35900
N756        N  0.06956028  0.80529810  0.51055258    -0.56400
N757        N  0.99861999  0.80367242  0.58066915    -0.35900
N758        N  0.90083707  0.82174803  0.52339607    -0.56400
C759        C  0.00865934  0.81694390  0.42182921     0.27700
C760        C  0.92225480  0.82319836  0.42894717     0.30900
C761        C  0.04449163  0.78828972  0.60036712     0.27700
C762        C  0.95899684  0.79817806  0.60733459     0.27700
C763        C  0.09348761  0.81708147  0.47537752     0.36300
C764        C  0.10760968  0.80673213  0.54729608     0.36300
C765        C  0.86850026  0.83930432  0.49193729     0.36300
C766        C  0.88432246  0.83039311  0.56419199     0.36300
C767        C  0.98034583  0.81080023  0.37895150    -0.21200
C768        C  0.92591685  0.81410848  0.38356873    -0.21200
C769        C  0.03319900  0.77169295  0.63906518    -0.21200
C770        C  0.97941187  0.77793911  0.64345749    -0.21200
C771        C  0.14797439  0.82465850  0.48918101    -0.22200
C772        C  0.15682427  0.81845192  0.53520071    -0.22200
C773        C  0.82957746  0.85843589  0.51244280    -0.22200
C774        C  0.83987296  0.85290624  0.55863536    -0.22200
C775        C  0.06614010  0.81965386  0.43105002    -0.17600
C776        C  0.87492425  0.83759059  0.44528005    -0.17600
C777        C  0.90997531  0.81767282  0.60558118    -0.17600
C778        C  0.09745777  0.79694487  0.59103708    -0.17600
H779        H  0.99694983  0.80538330  0.34721592     0.15300
H780        H  0.89293540  0.81216754  0.35599915     0.15300
H781        H  0.06144917  0.75876960  0.66379602     0.15300
H782        H  0.95910752  0.77110459  0.67233008     0.15300
H783        H  0.17775604  0.83417700  0.46850611     0.13600
H784        H  0.19491125  0.82200093  0.55712766     0.13600
H785        H  0.79802183  0.87506952  0.49602653     0.13600
H786        H  0.81774706  0.86439102  0.58498005     0.13600
H787        H  0.98289475  0.83561704  0.48460611     0.26900
H788        H  0.99760669  0.82324050  0.55702999     0.26900
N789        N  0.47674326  0.93284215  0.45941709    -0.35900
N790        N  0.40497001  0.93911471  0.53110849    -0.56400
N791        N  0.50338118  0.95424523  0.58916204    -0.35900
N792        N  0.57505489  0.94966364  0.51780452    -0.56400
C793        C  0.42649265  0.93731594  0.43668671     0.27700
C794        C  0.51330600  0.93960858  0.43019291     0.27700
C795        C  0.46456037  0.96027983  0.61709847     0.27700
C796        C  0.55015633  0.96892392  0.60968091     0.27700
C797        C  0.37043315  0.92370318  0.49757787     0.36300
C798        C  0.38708020  0.93119836  0.57082285     0.36300
C799        C  0.59736529  0.93450800  0.48237715     0.36300
C800        C  0.61203075  0.94705329  0.55488052     0.36300
C801        C  0.43144262  0.94808737  0.39306590    -0.21200
C802        C  0.48615516  0.94959063  0.38905401    -0.21200
C803        C  0.48611417  0.98037232  0.65488999    -0.21200
C804        C  0.53998640  0.98582512  0.65028266    -0.21200
C805        C  0.32867909  0.90694419  0.51573707    -0.22200
C806        C  0.33957388  0.91145602  0.56255590    -0.22200
C807        C  0.64978738  0.92306740  0.49660530    -0.22200
C808        C  0.65912657  0.93103966  0.54286371    -0.22200
C809        C  0.37733251  0.92531873  0.45119469    -0.17600
C810        C  0.56965836  0.93180607  0.43781961    -0.17600
C811        C  0.60266188  0.95907080  0.59900439    -0.17600
C812        C  0.41437149  0.94202214  0.61366036    -0.17600
H813        H  0.39907405  0.95227523  0.36584794     0.15300
H814        H  0.50386918  0.95554204  0.35850070     0.15300
H815        H  0.46619439  0.98801988  0.68437345     0.15300
H816        H  0.56887836  0.99868698  0.67585281     0.15300
H817        H  0.29489256  0.89237984  0.49730832     0.13600
H818        H  0.31572941  0.90113152  0.58745499     0.13600
H819        H  0.67777609  0.90983768  0.47614245     0.13600
H820        H  0.69587689  0.92529232  0.56513969     0.13600
H821        H  0.48524904  0.91978877  0.48972360     0.26900
H822        H  0.50110642  0.93491798  0.56325045     0.26900
N823        N  0.50142770  0.55966880  0.41603818    -0.35900
N824        N  0.43362000  0.56857307  0.48792119    -0.56400
N825        N  0.53395524  0.57654505  0.54896036    -0.35900
N826        N  0.60286552  0.56581273  0.47588919    -0.56400
C827        C  0.45189851  0.55046799  0.39431754     0.27700
C828        C  0.53901421  0.54878193  0.38893920     0.27700
C829        C  0.49699755  0.57235716  0.57879579     0.27700
C830        C  0.58414859  0.57224165  0.57208717     0.27700
C831        C  0.39486574  0.57298165  0.45238939     0.36300
C832        C  0.41203173  0.57947584  0.52577316     0.36300
C833        C  0.62268716  0.57001315  0.43583229     0.36300
C834        C  0.64114331  0.57824720  0.50891290     0.36300
C835        C  0.45852327  0.53283475  0.35336770    -0.21200
C836        C  0.51339738  0.53158274  0.35020429    -0.21200
C837        C  0.52416765  0.56536112  0.62121398    -0.21200
C838        C  0.57879953  0.56512164  0.61697976    -0.21200
C839        C  0.34771821  0.58633276  0.46769400    -0.22200
C840        C  0.35847391  0.59012217  0.51452169    -0.22200
C841        C  0.67487431  0.58403487  0.44337674    -0.22200
C842        C  0.68680598  0.58905359  0.49001565    -0.22200
C843        C  0.40142206  0.56276752  0.40705307    -0.17600
C844        C  0.59328578  0.56104553  0.39312710    -0.17600
C845        C  0.63464989  0.57930779  0.55564896    -0.17600
C846        C  0.43985751  0.57791508  0.57013403    -0.17600
H847        H  0.42748067  0.52308801  0.32715814     0.15300
H848        H  0.53214570  0.52128140  0.32121148     0.15300
H849        H  0.50677483  0.56174598  0.65257431     0.15300
H850        H  0.61085861  0.56129039  0.64454718     0.15300
H851        H  0.30948016  0.59207721  0.44740746     0.13600
H852        H  0.33034167  0.59969151  0.53755898     0.13600
H853        H  0.70128220  0.59010945  0.41803794     0.13600
H854        H  0.72420691  0.59993162  0.50786707     0.13600
H855        H  0.50830178  0.57833222  0.44261715     0.26900
H856        H  0.52610167  0.58681049  0.51686092     0.26900
C857        C  0.34359327  0.91335610  0.24989088    -0.27500
C858        C  0.29554727  0.91434740  0.27120946     0.06100
C859        C  0.24538060  0.91933411  0.24450124     0.25800
C860        C  0.24317897  0.92039303  0.19704335    -0.12000
C861        C  0.29079786  0.91590501  0.17529139    -0.25900
C862        C  0.34138136  0.91377233  0.20250900     0.36600
C863        C  0.29917906  0.90947971  0.32106087     0.06200
F864        F  0.19818946  0.92052305  0.26384820    -0.19700
H865        H  0.20345828  0.92166663  0.17717190     0.16000
F866        F  0.38843719  0.90991617  0.18329390    -0.23400
H867        H  0.38300496  0.91085876  0.26999751     0.17800
C868        C  0.33160770  0.88226310  0.34076333     0.25800
C869        C  0.34891327  0.88362616  0.38738980    -0.11900
C870        C  0.33490414  0.91242073  0.41469165    -0.26000
C871        C  0.29435813  0.93573125  0.39679069     0.36700
C872        C  0.27686743  0.93445081  0.34985825    -0.27600
F873        F  0.35113348  0.85637346  0.31430712    -0.19700
H874        H  0.37969419  0.86513699  0.40082113     0.16000
F875        F  0.27806486  0.46475917  0.41913414    -0.23400
H876        H  0.25064949  0.95515219  0.33561846     0.17800
C877        C  0.42118295  0.91355138  0.73450403    -0.27500
C878        C  0.37389388  0.92880150  0.74884417     0.06100
C879        C  0.33463161  0.94290458  0.71571378     0.25800
C880        C  0.34536027  0.94479406  0.67029985    -0.12000
C881        C  0.39478813  0.93202995  0.65719939    -0.25900
C882        C  0.43089238  0.91435358  0.68913064     0.36600
C883        C  0.36692291  0.93078244  0.79829660     0.06200
F884        F  0.28665016  0.95578448  0.72743894    -0.19700
H885        H  0.31919179  0.46157752  0.64400126     0.16000
F886        F  0.47788148  0.90014634  0.67697929    -0.23400
H887        H  0.45223095  0.90242540  0.75877212     0.17800
C888        C  0.38011996  0.90198031  0.82600704     0.25800
C889        C  0.37089890  0.90353203  0.87163403    -0.11900
C890        C  0.34596198  0.93311516  0.89056302    -0.26000
C891        C  0.33651732  0.96291905  0.86388764     0.36700
C892        C  0.34746305  0.96176323  0.81841225    -0.27600
F893        F  0.39782471  0.87115717  0.80834374    -0.19700
H894        H  0.37836896  0.87991107  0.89073025     0.16000
F895        F  0.31370416  0.99237841  0.88073778    -0.23400
H896        H  0.33915870  0.98485824  0.79846962     0.17800
C897        C  0.17964113  0.81100544  0.24022229    -0.27500
C898        C  0.13888795  0.83267494  0.25505508     0.06100
C899        C  0.11150041  0.85605920  0.22415052     0.25800
C900        C  0.12555112  0.85771917  0.17953958    -0.12000
C901        C  0.16682038  0.83597876  0.16499770    -0.25900
C902        C  0.19257353  0.81184578  0.19582614     0.36600
C903        C  0.12553143  0.82982166  0.30258638     0.06200
F904        F  0.07172499  0.87756945  0.23714526    -0.19700
H905        H  0.10609394  0.87716089  0.15722065     0.16000
F906        F  0.23256187  0.78995864  0.18389863    -0.23400
H907        H  0.20260606  0.79365595  0.26357258     0.17800
C908        C  0.11944141  0.79648148  0.32070028     0.25800
C909        C  0.10722988  0.79356881  0.36520902    -0.11900
C910        C  0.09726602  0.82358976  0.39163300    -0.26000
C911        C  0.10518782  0.85695148  0.37463784     0.36700
C912        C  0.12002781  0.86000091  0.33064284    -0.27600
F913        F  0.12154934  0.76665927  0.29443103    -0.19700
H914        H  0.10144139  0.76780440  0.37803848     0.16000
F915        F  0.09628635  0.88647108  0.39987197    -0.23400
H916        H  0.12600159  0.88592441  0.31816234     0.17800
C917        C  0.22419727  0.86089588  0.78494308    -0.27500
C918        C  0.19895463  0.82854183  0.77228887     0.06100
C919        C  0.18627225  0.80651796  0.80715676     0.25800
C920        C  0.19597472  0.81802964  0.85332315    -0.12000
C921        C  0.21610536  0.85206416  0.86484679    -0.25900
C922        C  0.23031785  0.87312941  0.82996022     0.36600
C923        C  0.18110353  0.82057725  0.72292082     0.06200
F924        F  0.16149564  0.77498238  0.79669824    -0.19700
H925        H  0.18469941  0.80135264  0.87954180     0.16000
F926        F  0.24794700  0.90661739  0.83899710    -0.23400
H927        H  0.23660713  0.87790150  0.75948842     0.17800
C928        C  0.15739369  0.84731869  0.69505345     0.25800
C929        C  0.13687353  0.83976140  0.64986601    -0.11900
C930        C  0.13741534  0.80536779  0.63152969    -0.26000
C931        C  0.16290398  0.77884610  0.65822589     0.36700
C932        C  0.18515997  0.78648495  0.70340341    -0.27600
F933        F  0.14942817  0.88026449  0.71230205    -0.19700
H934        H  0.11568217  0.86026645  0.63032971     0.16000
F935        F  0.16109302  0.74504776  0.64211607    -0.23400
H936        H  0.20358975  0.76544535  0.72355425     0.17800
C937        C  0.73341463  0.94882427  0.80803605    -0.27500
C938        C  0.68330541  0.94222488  0.78153052     0.06100
C939        C  0.63932781  0.92931684  0.80222769     0.25800
C940        C  0.64717973  0.91945794  0.84737125    -0.12000
C941        C  0.69877437  0.92265369  0.87277720    -0.25900
C942        C  0.74123853  0.93921734  0.85352964     0.36600
C943        C  0.67775505  0.94509776  0.73160706     0.06200
F944        F  0.58951820  0.92431759  0.77790195    -0.19700
H945        H  0.61378664  0.90716682  0.86156576     0.16000
F946        F  0.79183099  0.94272592  0.87691792    -0.23400
H947        H  0.76752544  0.95905276  0.79266779     0.17800
C948        C  0.68541537  0.97720507  0.71131824     0.25800
C949        C  0.66838114  0.98066181  0.66484064    -0.11900
C950        C  0.64321298  0.95233723  0.63869771    -0.26000
C951        C  0.64140877  0.91933548  0.65807226     0.36700
C952        C  0.65890419  0.91576776  0.70410762    -0.27600
F953        F  0.70325336  0.00601454  0.73721533    -0.19700
H954        H  0.66782477  0.00643943  0.65082200     0.16000
F955        F  0.61562243  0.89184893  0.63405028    -0.23400
H956        H  0.65366419  0.89065382  0.71914256     0.17800
C957        C  0.65854497  0.94969652  0.24263928    -0.27500
C958        C  0.64011734  0.91807863  0.25891145     0.06100
C959        C  0.62977510  0.88934583  0.22719297     0.25800
C960        C  0.63743774  0.89258745  0.18128929    -0.12000
C961        C  0.65860519  0.92362420  0.16611458    -0.25900
C962        C  0.67001005  0.95194447  0.19770348     0.36600
C963        C  0.63033479  0.91607005  0.30811016     0.06200
F964        F  0.61570918  0.85727260  0.24059978    -0.19700
H965        H  0.63138744  0.86963562  0.15845165     0.16000
F966        F  0.69556626  0.98113390  0.18590182    -0.23400
H967        H  0.66535031  0.97282625  0.26484122     0.17800
C968        C  0.66081346  0.93657366  0.34326992     0.25800
C969        C  0.64352878  0.94013175  0.38676819    -0.11900
C970        C  0.59791802  0.92150930  0.39716889    -0.26000
C971        C  0.57319314  0.89682578  0.36449323     0.36700
C972        C  0.58750657  0.89535878  0.32020243    -0.27600
F973        F  0.70674484  0.95379832  0.33567680    -0.19700
H974        H  0.66430598  0.95865518  0.41158663     0.16000
F975        F  0.53151334  0.87630510  0.37430084    -0.23400
H976        H  0.56245654  0.87933211  0.29506781     0.17800
C977        C  0.84225625  0.80128991  0.80961023    -0.27500
C978        C  0.86308499  0.83127109  0.79128631     0.06100
C979        C  0.87432478  0.86147026  0.81980746     0.25800
C980        C  0.86328035  0.86189488  0.86496578    -0.12000
C981        C  0.83862735  0.83288362  0.88227216    -0.25900
C982        C  0.82965436  0.80210909  0.85451997     0.36600
C983        C  0.87170310  0.83123355  0.74238401     0.06200
F984        F  0.89166371  0.89166553  0.80315845    -0.19700
H985        H  0.86919963  0.88629547  0.88500819     0.16000
F986        F  0.80592274  0.77357462  0.87008301    -0.23400
H987        H  0.83415077  0.77757180  0.78865189     0.17800
C988        C  0.92021197  0.84470968  0.72929367     0.25800
C989        C  0.92858170  0.84403179  0.68361399    -0.11900
C990        C  0.89090104  0.82757162  0.65014579    -0.26000
C991        C  0.84182179  0.81465322  0.66267155     0.36700
C992        C  0.83197047  0.81704105  0.70842671    -0.27600
F993        F  0.96152426  0.85604291  0.76084503    -0.19700
H994        H  0.96717849  0.85350475  0.67471905     0.16000
F995        F  0.80540966  0.79763692  0.63144260    -0.23400
H996        H  0.79417926  0.80656176  0.71759620     0.17800
C997        C  0.77376033  0.84349598  0.34234432    -0.27500
C998        C  0.80227607  0.86739899  0.31850747     0.06100
C999        C  0.84319505  0.88854397  0.34369790     0.25800
C1000       C  0.85788885  0.88354440  0.38984581    -0.12000
C1001       C  0.83650071  0.85526083  0.41095249    -0.25900
C1002       C  0.79165473  0.83676692  0.38801013     0.36600
C1003       C  0.79391989  0.86798783  0.26756538     0.06200
F1004       F  0.87475525  0.91066212  0.32311665    -0.19700
H1005       H  0.89301599  0.89771549  0.40693267     0.16000
F1006       F  0.76976927  0.80946013  0.40782808    -0.23400
H1007       H  0.74033582  0.82806901  0.32487782     0.17800
C1008       C  0.78436347  0.83695696  0.23977494     0.25800
C1009       C  0.78212665  0.83802589  0.19219685    -0.11900
C1010       C  0.79357434  0.86932744  0.17176671    -0.26000
C1011       C  0.80463718  0.89994954  0.19967169     0.36700
C1012       C  0.80128727  0.89957464  0.24615172    -0.27600
F1013       F  0.77919509  0.80532991  0.25829453    -0.19700
H1014       H  0.77300682  0.81423586  0.17145521     0.16000
F1015       F  0.81729994  0.93091164  0.18211165    -0.23400
H1016       H  0.80581859  0.92430600  0.26549011     0.17800
C1017       C  0.65359720  0.54998625  0.28189461    -0.27500
C1018       C  0.62229672  0.57468410  0.25560800     0.06100
C1019       C  0.58806143  0.59769326  0.27752089     0.25800
C1020       C  0.58525690  0.59585759  0.32410775    -0.12000
C1021       C  0.61369091  0.56978720  0.34964204    -0.25900
C1022       C  0.64862133  0.54707238  0.32837067     0.36600
C1023       C  0.62554486  0.57623241  0.20568261     0.06200
F1024       F  0.55388014  0.62013247  0.25352052    -0.19700
H1025       H  0.55654312  0.61271691  0.33959335     0.16000
F1026       F  0.67488412  0.52075037  0.35168370    -0.23400
H1027       H  0.68091064  0.53233483  0.26611163     0.17800
C1028       C  0.62938035  0.60868756  0.18508533     0.25800
C1029       C  0.63701657  0.60977730  0.13929062    -0.11900
C1030       C  0.64542808  0.57876621  0.11353271    -0.26000
C1031       C  0.63904492  0.54622616  0.13318170     0.36700
C1032       C  0.62750496  0.54513825  0.17850339    -0.27600
F1033       F  0.63119050  0.63946458  0.20996351    -0.19700
H1034       H  0.64282363  0.63534450  0.12563907     0.16000
F1035       F  0.64551150  0.51571703  0.10916634    -0.23400
H1036       H  0.62175344  0.51998067  0.19303801     0.17800
C1037       C  0.66471011  0.60394698  0.75233650    -0.27500
C1038       C  0.71349105  0.59497569  0.73444010     0.06100
C1039       C  0.75868486  0.58471803  0.76440317     0.25800
C1040       C  0.75608762  0.58598631  0.81150768    -0.12000
C1041       C  0.70856260  0.59779802  0.82975670    -0.25900
C1042       C  0.66218479  0.60564451  0.79929233     0.36600
C1043       C  0.71534324  0.59633408  0.68446365     0.06200
F1044       F  0.80635711  0.57566152  0.74846366    -0.19700
H1045       H  0.79283606  0.58016242  0.83378311     0.16000
F1046       F  0.61525037  0.61698810  0.81473422    -0.23400
H1047       H  0.62862777  0.61070851  0.72977416     0.17800
C1048       C  0.69309377  0.62545295  0.66083824     0.25800
C1049       C  0.67585624  0.62206171  0.61421512    -0.11900
C1050       C  0.68046467  0.58961294  0.59082620    -0.26000
C1051       C  0.71289752  0.56319374  0.61223831     0.36700
C1052       C  0.73007259  0.56649673  0.65917588    -0.27600
F1053       F  0.68242773  0.65581274  0.68372985    -0.19700
H1054       H  0.65176766  0.64298214  0.59801388     0.16000
F1055       F  0.71990616  0.53211460  0.58961581    -0.23400
H1056       H  0.74912641  0.54420056  0.67632469     0.17800
C1057       C  0.84615542  0.65902853  0.30767235    -0.27500
C1058       C  0.81393876  0.68469126  0.28434635     0.06100
C1059       C  0.80179903  0.71591703  0.30822859     0.25800
C1060       C  0.82467011  0.72206404  0.35369620    -0.12000
C1061       C  0.85847285  0.69663656  0.37595219    -0.25900
C1062       C  0.86749720  0.66465144  0.35290103     0.36600
C1063       C  0.79414733  0.67733090  0.23542148     0.06200
F1064       F  0.76832522  0.74036459  0.28765027    -0.19700
H1065       H  0.81844267  0.74721595  0.37068149     0.16000
F1066       F  0.90171553  0.64020140  0.37293935    -0.23400
H1067       H  0.85675181  0.63486981  0.29023875     0.17800
C1068       C  0.80210219  0.70075607  0.20079324     0.25800
C1069       C  0.79250862  0.68950291  0.15453618    -0.11900
C1070       C  0.77729011  0.65448594  0.14274870    -0.26000
C1071       C  0.76777031  0.63186637  0.17764308     0.36700
C1072       C  0.77434456  0.64353658  0.22282661    -0.27600
F1073       F  0.82255152  0.73347086  0.21154748    -0.19700
H1074       H  0.79997446  0.70737018  0.12833467     0.16000
F1075       F  0.75355062  0.59767767  0.16838681    -0.23400
H1076       H  0.76700304  0.62514501  0.24852094     0.17800
C1077       C  0.87430293  0.64903063  0.68122633    -0.27500
C1078       C  0.87017427  0.68056483  0.70695028     0.06100
C1079       C  0.87517084  0.71276367  0.68576767     0.25800
C1080       C  0.88417108  0.71326610  0.64015346    -0.12000
C1081       C  0.89320123  0.68193329  0.61599641    -0.25900
C1082       C  0.88650042  0.64968046  0.63623838     0.36600
C1083       C  0.85946012  0.67998875  0.75532256     0.06200
F1084       F  0.87555825  0.74369582  0.71010442    -0.19700
H1085       H  0.88901886  0.73817955  0.62474041     0.16000
F1086       F  0.89480609  0.61896823  0.61325849    -0.23400
H1087       H  0.86957529  0.62391574  0.69636311     0.17800
C1088       C  0.81928816  0.70202327  0.77069737     0.25800
C1089       C  0.80777994  0.70112174  0.81540972    -0.11900
C1090       C  0.83377205  0.67705360  0.84596696    -0.26000
C1091       C  0.87475086  0.65519693  0.83100571     0.36700
C1092       C  0.88769422  0.65690855  0.78609087    -0.27600
F1093       F  0.78793828  0.72267707  0.74161384    -0.19700
H1094       H  0.77482206  0.71761874  0.82492753     0.16000
F1095       F  0.89929666  0.63051143  0.85837221    -0.23400
H1096       H  0.91871806  0.63950549  0.77494811     0.17800
C1097       C  0.32269085  0.55980094  0.75819299    -0.27500
C1098       C  0.36519174  0.58118435  0.74751152     0.06100
C1099       C  0.39385690  0.60222387  0.78275027     0.25800
C1100       C  0.37812236  0.60305353  0.82693531    -0.12000
C1101       C  0.33400709  0.58262369  0.83697678    -0.25900
C1102       C  0.30784221  0.55995111  0.80216268     0.36600
C1103       C  0.37882798  0.58105404  0.69963968     0.06200
F1104       F  0.43678847  0.62220220  0.77446851    -0.19700
H1105       H  0.39886128  0.62087594  0.85267289     0.16000
F1106       F  0.26599649  0.53873490  0.80986165    -0.23400
H1107       H  0.29950122  0.54349704  0.73202493     0.17800
C1108       C  0.38168699  0.54914161  0.67430052     0.25800
C1109       C  0.39550385  0.54878034  0.62985645    -0.11900
C1110       C  0.40883193  0.58005722  0.61025332    -0.26000
C1111       C  0.40405279  0.61216197  0.63451148     0.36700
C1112       C  0.38853084  0.61264785  0.67862890    -0.27600
F1113       F  0.37492939  0.51806894  0.69370905    -0.19700
H1114       H  0.39984003  0.52381814  0.61185877     0.16000
F1115       F  0.41699041  0.64280912  0.61634884    -0.23400
H1116       H  0.38525786  0.63768824  0.69671983     0.17800
C1117       C  0.26884238  0.56133172  0.19809260    -0.27500
C1118       C  0.31670013  0.57140942  0.22596300     0.06100
C1119       C  0.36140340  0.58358325  0.20553805     0.25800
C1120       C  0.35553142  0.59049223  0.15929809    -0.12000
C1121       C  0.30529938  0.58489470  0.13231986    -0.25900
C1122       C  0.26322543  0.56772959  0.15135357     0.36600
C1123       C  0.31985379  0.57178399  0.27633748     0.06200
F1124       F  0.40983690  0.59094056  0.23098529    -0.19700
H1125       H  0.38898173  0.60297724  0.14540746     0.16000
F1126       F  0.21471943  0.56054772  0.12607577    -0.23400
H1127       H  0.23456200  0.55083974  0.21297511     0.17800
C1128       C  0.33743631  0.60249658  0.30186390     0.25800
C1129       C  0.35658582  0.60066514  0.34800638    -0.11900
C1130       C  0.35729824  0.56840469  0.36935753    -0.26000
C1131       C  0.33044671  0.53937428  0.34598801     0.36700
C1132       C  0.31243466  0.54087350  0.29932708    -0.27600
F1133       F  0.34094932  0.63351605  0.28114036    -0.19700
H1134       H  0.37651526  0.62346238  0.36564732     0.16000
F1135       F  0.33372169  0.00435208  0.36908424    -0.23400
H1136       H  0.29782120  0.51710731  0.28052683     0.17800
C1137       C  0.15586602  0.65372174  0.76287911    -0.27500
C1138       C  0.20420872  0.65423314  0.74202114     0.06100
C1139       C  0.25383368  0.66145463  0.76909636     0.25800
C1140       C  0.25546878  0.66451935  0.81653313    -0.12000
C1141       C  0.20776419  0.66010574  0.83775936    -0.25900
C1142       C  0.15746539  0.65662874  0.81021067     0.36600
C1143       C  0.20114401  0.64750796  0.69206460     0.06200
F1144       F  0.30113891  0.66299358  0.75008348    -0.19700
H1145       H  0.29497123  0.66709707  0.83670249     0.16000
F1146       F  0.11021874  0.65382401  0.82908346    -0.23400
H1147       H  0.11675681  0.64987194  0.74241964     0.17800
C1148       C  0.17001510  0.61907191  0.67126727     0.25800
C1149       C  0.15031803  0.61957463  0.62507719    -0.11900
C1150       C  0.16153962  0.64840450  0.59942441    -0.26000
C1151       C  0.20192260  0.67255268  0.61779366     0.36700
C1152       C  0.22102453  0.67246857  0.66433065    -0.27600
F1153       F  0.15348901  0.59302405  0.69663724    -0.19700
H1154       H  0.12003120  0.60028560  0.61116606     0.16000
F1155       F  0.21612956  0.69933782  0.59258235    -0.23400
H1156       H  0.24635247  0.69405766  0.67935635     0.17800
C1157       C  0.13297709  0.64260976  0.19368259    -0.27500
C1158       C  0.14333858  0.67259821  0.22254944     0.06100
C1159       C  0.16421878  0.70283568  0.20457009     0.25800
C1160       C  0.17694230  0.70234766  0.15979632    -0.12000
C1161       C  0.16810089  0.67198348  0.13154466    -0.25900
C1162       C  0.14410514  0.64242913  0.14857120     0.36600
C1163       C  0.13255660  0.67200335  0.27104343     0.06200
F1164       F  0.17334932  0.73278459  0.23036444    -0.19700
H1165       H  0.19567758  0.72534760  0.14771795     0.16000
F1166       F  0.13547526  0.61218439  0.12295619    -0.23400
H1167       H  0.11830430  0.61856301  0.20642597     0.17800
C1168       C  0.08562974  0.65531444  0.28294287     0.25800
C1169       C  0.07447788  0.65639452  0.32797715    -0.11900
C1170       C  0.10791019  0.67564275  0.36178363    -0.26000
C1171       C  0.15561719  0.69135408  0.35070782     0.36700
C1172       C  0.16849338  0.68875220  0.30589483    -0.27600
F1173       F  0.04821729  0.64013345  0.25082040    -0.19700
H1174       H  0.03695441  0.64463521  0.33593542     0.16000
F1175       F  0.18775622  0.71095950  0.38244566    -0.23400
H1176       H  0.20581814  0.70085249  0.29828543     0.17800
loop_ 
_geom_bond_atom_site_label_1 
_geom_bond_atom_site_label_2 
_geom_bond_distance 
_geom_bond_site_symmetry_2 
_ccdc_geom_bond_type 
O1           Ni9   1.937       .  S
O1           C11   1.287   1_554  A
O2           Ni9   1.941       .  S
O2           C12   1.282       .  A
O3           Ni9   1.934       .  S
O3           C13   1.286       .  A
O4           Ni9   1.933       .  S
O4           C14   1.282   1_554  A
O5          Ni10   1.924       .  S
O5           C14   1.284       .  A
O6          Ni10   1.936       .  S
O6           C13   1.282   1_556  A
O7          Ni10   1.942       .  S
O7           C12   1.289   1_556  A
O8          Ni10   1.945       .  S
O8           C11   1.284       .  A
Ni9         Ni10   2.383   1_554  S
C11          C39   1.497       .  S
C12         C102   1.498       .  S
C13         C128   1.490       .  S
C14          C65   1.482       .  S
O15         Ni23   1.928   1_655  S
O15          C25   1.285       .  A
O16        Ni611   1.935       .  S
O16          C26   1.282   1_554  A
O17        Ni611   1.938   1_655  S
O17          C27   1.288   1_554  A
O18         Ni23   1.946       .  S
O18          C28   1.284       .  A
O19        Ni612   1.940   1_455  S
O19          C28   1.288   1_556  A
O20         Ni24   1.942       .  S
O20          C27   1.283       .  A
O21         Ni24   1.933   1_455  S
O21          C26   1.286       .  A
O22        Ni612   1.936       .  S
O22          C25   1.283   1_556  A
Ni23        O604   1.939       .  S
Ni23        O605   1.937   1_455  S
Ni23       Ni612   2.383   1_454  S
Ni24        O607   1.938   1_645  S
Ni24        O610   1.937   1_545  S
Ni24       Ni611   2.383   1_656  S
C25          C91   1.488       .  S
C26          C50   1.490       .  S
C27          C76   1.497       .  S
C28         C117   1.500       .  S
O29         Ni35   1.933       .  S
O29          C50   1.269       .  A
O30         Ni53   1.957       .  S
O30          C39   1.277       .  A
O31         Ni35   1.912       .  S
O31         Ni53   1.945       .  S
O31         Ni47   1.916   1_556  S
O31          H54   0.966       .  S
C32          O49   1.275       .  A
C32          O41   1.277       .  A
C32         C573   1.477       .  S
O33         Ni52   1.919       .  S
O33          C39   1.266   1_554  A
O34         Ni52   1.903       .  S
O34          C36   1.270       .  A
Ni35         O38   1.916       .  S
Ni35         O40   1.903       .  S
C36          O46   1.276       .  A
C36         C533   1.488       .  S
O37         Ni53   1.936       .  S
O37          C43   1.284       .  A
O38          C43   1.274       .  A
O40          C42   1.266       .  A
O41         Ni52   1.917       .  S
C42          O48   1.271       .  A
C42         C553   1.484       .  S
C43         C513   1.490       .  S
H44          O45   0.966   1_556  S
O45         Ni53   1.922   1_554  S
O45         Ni47   1.918       .  S
O45         Ni52   1.908       .  S
O46         Ni47   1.939       .  S
Ni47         O51   1.933       .  S
Ni47         O49   1.909       .  S
O48         Ni53   1.934       .  S
C50          O51   1.273   1_556  A
O55         Ni61   1.935       .  S
O55          C76   1.271   1_554  A
O56         Ni79   1.925       .  S
O56          C65   1.270   1_554  A
O57         Ni61   1.899   1_556  S
O57         Ni79   1.911   1_556  S
O57         Ni73   1.928       .  S
O57          H80   0.966       .  S
C58          O75   1.287       .  A
C58          O67   1.275       .  A
C58         C502   1.489       .  S
O59         Ni78   1.931       .  S
O59          C65   1.269       .  A
O60         Ni78   1.907       .  S
O60          C62   1.269       .  A
Ni61         O64   1.944       .  S
Ni61         O66   1.893       .  S
C62          O72   1.274       .  A
C62         C453   1.490       .  S
O63         Ni79   1.904       .  S
O63          C69   1.273       .  A
O64          C69   1.283       .  A
O66          C68   1.267       .  A
O67         Ni78   1.906       .  S
C68          O74   1.278       .  A
C68         C482   1.483       .  S
C69         C442   1.485       .  S
H70          O71   0.966       .  S
O71         Ni79   1.904   1_556  S
O71         Ni73   1.929       .  S
O71         Ni78   1.900       .  S
O72         Ni73   1.937       .  S
Ni73         O77   1.955       .  S
Ni73         O75   1.940       .  S
O74         Ni79   1.950       .  S
C76          O77   1.280       .  A
O81         Ni87   1.926       .  S
O81         C102   1.267   1_556  A
O82        Ni105   1.929       .  S
O82          C91   1.270   1_556  A
O83         Ni87   1.911   1_554  S
O83        Ni105   1.914   1_554  S
O83         Ni99   1.908       .  S
O83         H106   0.966       .  S
C84         O101   1.275       .  A
C84          O93   1.270       .  A
C84         C373   1.483       .  S
O85        Ni104   1.926       .  S
O85          C91   1.268       .  A
O86        Ni104   1.891       .  S
O86          C88   1.262       .  A
Ni87         O90   1.918       .  S
Ni87         O92   1.903       .  S
C88          O98   1.280       .  A
C88         C422   1.481       .  S
O89        Ni105   1.919       .  S
O89          C95   1.278       .  A
O90          C95   1.277       .  A
O92          C94   1.269       .  A
O93        Ni104   1.925       .  S
C94         O100   1.270       .  A
C94         C353   1.478       .  S
C95         C393   1.481       .  S
H96          O97   0.966       .  S
O97        Ni105   1.940   1_554  S
O97         Ni99   1.960       .  S
O97        Ni104   1.915       .  S
O98         Ni99   1.966       .  S
Ni99        O103   1.956       .  S
Ni99        O101   1.921       .  S
O100       Ni105   1.922       .  S
C102        O103   1.279       .  A
O107       Ni113   1.934       .  S
O107        C128   1.270       .  A
O108       Ni131   1.963       .  S
O108        C117   1.282       .  A
O109       Ni113   1.902       .  S
O109       Ni131   1.938       .  S
O109       Ni125   1.907   1_554  S
O109        H132   0.967       .  S
C110        O127   1.276       .  A
C110        O119   1.282       .  A
C110        C302   1.488       .  S
O111       Ni130   1.927       .  S
O111        C117   1.269   1_556  A
O112       Ni130   1.895       .  S
O112        C114   1.268       .  A
Ni113       O116   1.907       .  S
Ni113       O118   1.908       .  S
C114        O124   1.279       .  A
C114        C333   1.480       .  S
O115       Ni131   1.948       .  S
O115        C121   1.289       .  A
O116        C121   1.275       .  A
O118        C120   1.268       .  A
O119       Ni130   1.936       .  S
C120        O126   1.272       .  A
C120        C273   1.485       .  S
C121        C313   1.491       .  S
H122        O123   0.968       .  S
O123       Ni131   1.928       .  S
O123       Ni125   1.913   1_554  S
O123       Ni130   1.897   1_554  S
O124       Ni125   1.949       .  S
Ni125       O129   1.934       .  S
Ni125       O127   1.911       .  S
O126       Ni131   1.934       .  S
C128        O129   1.274   1_554  A
N133        C138   1.352       .  A
N133        C137   1.351   1_655  A
N133        H165   1.036       .  S
N134        C141   1.348       .  A
N134        C142   1.349       .  A
N135        C140   1.354   1_455  A
N135        C139   1.354       .  A
N135        H166   1.039       .  S
N136        C143   1.349       .  A
N136        C144   1.347       .  A
C137        C145   1.389       .  A
C137        C153   1.418       .  A
C138        C154   1.411       .  A
C138        C146   1.384       .  A
C139        C147   1.388       .  A
C139        C156   1.418       .  A
C140        C155   1.415       .  A
C140        C148   1.386   1_655  A
C141        C153   1.413       .  A
C141        C149   1.388       .  A
C142        C156   1.407       .  A
C142        C150   1.385       .  A
C143        C151   1.386       .  A
C143        C154   1.410       .  A
C144        C152   1.385       .  A
C144        C155   1.407       .  A
C145        C146   1.367   1_455  A
C145        H157   1.082       .  S
C146        H158   1.081       .  S
C147        C148   1.366       .  A
C147        H159   1.081       .  S
C148        H160   1.082   1_455  S
C149        C150   1.380       .  A
C149        H161   1.082       .  S
C150        H162   1.083       .  S
C151        C152   1.381       .  A
C151        H163   1.082       .  S
C152        H164   1.082       .  S
C153        C582   1.484       .  S
C154        C473   1.483       .  S
C155        C493   1.481       .  S
C156        C562   1.486       .  S
N167        C172   1.351       .  A
N167        C171   1.354   1_655  A
N167        H199   1.039       .  S
N168        C175   1.349       .  A
N168        C176   1.349       .  A
N169        C174   1.351   1_455  A
N169        C173   1.352       .  A
N169        H200   1.038       .  S
N170        C177   1.349       .  A
N170        C178   1.351       .  A
C171        C179   1.386   1_455  A
C171        C187   1.415       .  A
C172        C188   1.416       .  A
C172        C180   1.388       .  A
C173        C181   1.386       .  A
C173        C190   1.411       .  A
C174        C189   1.415       .  A
C174        C182   1.386       .  A
C175        C187   1.409       .  A
C175        C183   1.385       .  A
C176        C190   1.411       .  A
C176        C184   1.386       .  A
C177        C185   1.385       .  A
C177        C188   1.411       .  A
C178        C186   1.387       .  A
C178        C189   1.415       .  A
C179        C180   1.371       .  A
C179        H191   1.081   1_655  S
C180        H192   1.082       .  S
C181        C182   1.368   1_455  A
C181        H193   1.080       .  S
C182        H194   1.081       .  S
C183        C184   1.382       .  A
C183        H195   1.082       .  S
C184        H196   1.082       .  S
C185        C186   1.384       .  A
C185        H197   1.082       .  S
C186        H198   1.082       .  S
C187        C322   1.486       .  S
C188        C413   1.486       .  S
C189        C402   1.494       .  S
C190        C342   1.482       .  S
N201        C206   1.353       .  A
N201        C205   1.351       .  A
N201        H233   1.041       .  S
N202        C209   1.346       .  A
N202        C210   1.348       .  A
N203        C208   1.351       .  A
N203        C207   1.351       .  A
N203        H234   1.039       .  S
N204        C211   1.351       .  A
N204        C212   1.348       .  A
C205        C213   1.389       .  A
C205        C221   1.415       .  A
C206        C222   1.413       .  A
C206        C214   1.385       .  A
C207        C215   1.384       .  A
C207        C224   1.412       .  A
C208        C223   1.416       .  A
C208        C216   1.391       .  A
C209        C221   1.406       .  A
C209        C217   1.385       .  A
C210        C224   1.409       .  A
C210        C218   1.386       .  A
C211        C219   1.385       .  A
C211        C222   1.413       .  A
C212        C220   1.387       .  A
C212        C223   1.413       .  A
C213        C214   1.371       .  A
C213        H225   1.081       .  S
C214        H226   1.082       .  S
C215        C216   1.369       .  A
C215        H227   1.082       .  S
C216        H228   1.080       .  S
C217        C218   1.384       .  A
C217        H229   1.082       .  S
C218        H230   1.082       .  S
C219        C220   1.383       .  A
C219        H231   1.082       .  S
C220        H232   1.082       .  S
C221        C282   1.482       .  S
C222        C382   1.499       .  S
C223        C362   1.482       .  S
C224        C293   1.488       .  S
N235        C240   1.351       .  A
N235        C239   1.352       .  A
N235        H267   1.039       .  S
N236        C243   1.350       .  A
N236        C244   1.348       .  A
N237        C242   1.354       .  A
N237        C241   1.356       .  A
N237        H268   1.038       .  S
N238        C245   1.351       .  A
N238        C246   1.349       .  A
C239        C247   1.390       .  A
C239        C255   1.416       .  A
C240        C256   1.409       .  A
C240        C248   1.384       .  A
C241        C249   1.385       .  A
C241        C258   1.417       .  A
C242        C257   1.422       .  A
C242        C250   1.389       .  A
C243        C255   1.411       .  A
C243        C251   1.385       .  A
C244        C258   1.409       .  A
C244        C252   1.386       .  A
C245        C253   1.385       .  A
C245        C256   1.412       .  A
C246        C254   1.387       .  A
C246        C257   1.412       .  A
C247        C248   1.369       .  A
C247        H259   1.079       .  S
C248        H260   1.083       .  S
C249        C250   1.369       .  A
C249        H261   1.082       .  S
C250        H262   1.080       .  S
C251        C252   1.382       .  A
C251        H263   1.082       .  S
C252        H264   1.082       .  S
C253        C254   1.384       .  A
C253        H265   1.082       .  S
C254        H266   1.083       .  S
C255        C542   1.486       .  S
C256        C433   1.487       .  S
C257        C462   1.486       .  S
C258        C522   1.485       .  S
C269        C270   1.407       .  A
C269        C274   1.399       .  A
C269        H279   1.084       .  S
C270        C275   1.483       .  S
C270        C271   1.402       .  A
C271        C272   1.401       .  A
C271        F276   1.357       .  S
C272        C273   1.412       .  A
C272        H277   1.083       .  S
C273        C274   1.406       .  A
C274        F278   1.357       .  S
C275        C280   1.406       .  A
C275        C284   1.406       .  A
C280        C281   1.395       .  A
C280        F285   1.358       .  S
C281        C282   1.404       .  A
C281        H286   1.084       .  S
C282        C283   1.403       .  A
C283        C284   1.403       .  A
C283        F875   1.357       .  S
C284        H288   1.083       .  S
F287        C871   1.357       .  S
C289        C290   1.405       .  A
C289        C294   1.394       .  A
C289        H299   1.082       .  S
C290        C295   1.491       .  S
C290        C291   1.413       .  A
C291        C292   1.404       .  A
C291        F296   1.357       .  S
C292        C293   1.401       .  A
C292        H885   1.083       .  S
C293        C294   1.407       .  A
C294        F298   1.358       .  S
C295        C300   1.407       .  A
C295        C304   1.409       .  A
H297        C880   1.083       .  S
C300        C301   1.395       .  A
C300        F305   1.358       .  S
C301        C302   1.411       .  A
C301        H306   1.083       .  S
C302        C303   1.407       .  A
C303        C304   1.403       .  A
C303        F307   1.357       .  S
C304        H308   1.082       .  S
C309        C310   1.396       .  A
C309        C314   1.390       .  A
C309        H319   1.082       .  S
C310        C315   1.491       .  S
C310        C311   1.412       .  A
C311        C312   1.410       .  A
C311        F316   1.356       .  S
C312        C313   1.407       .  A
C312        H317   1.083       .  S
C313        C314   1.416       .  A
C314        F318   1.358       .  S
C315        C320   1.411       .  A
C315        C324   1.407       .  A
C320        C321   1.395       .  A
C320        F325   1.355       .  S
C321        C322   1.397       .  A
C321        H326   1.080       .  S
C322        C323   1.406       .  A
C323        C324   1.404       .  A
C323        F327   1.357       .  S
C324        H328   1.083       .  S
C329        C330   1.398       .  A
C329        C334   1.385       .  A
C329        H339   1.083       .  S
C330        C335   1.492       .  S
C330        C331   1.417       .  A
C331        C332   1.412       .  A
C331        F336   1.357       .  S
C332        C333   1.403       .  A
C332        H337   1.083       .  S
C333        C334   1.408       .  A
C334        F338   1.355       .  S
C335        C340   1.414       .  A
C335        C344   1.407       .  A
C340        C341   1.392       .  A
C340        F345   1.358       .  S
C341        C342   1.398       .  A
C341        H346   1.084       .  S
C342        C343   1.404       .  A
C343        C344   1.403       .  A
C343        F347   1.353       .  S
C344        H348   1.083       .  S
C349        C350   1.401       .  A
C349        C354   1.401       .  A
C349        H359   1.083       .  S
C350        C355   1.477       .  S
C350        C351   1.406       .  A
C351        C352   1.393       .  A
C351        F356   1.358       .  S
C352        C353   1.403       .  A
C352        H357   1.083       .  S
C353        C354   1.413       .  A
C354        F358   1.357       .  S
C355        C360   1.404       .  A
C355        C364   1.403       .  A
C360        C361   1.401       .  A
C360        F365   1.357       .  S
C361        C362   1.404       .  A
C361        H366   1.077       .  S
C362        C363   1.403       .  A
C363        C364   1.393       .  A
C363        F367   1.358       .  S
C364        H368   1.084       .  S
C369        C370   1.408       .  A
C369        C374   1.397       .  A
C369        H379   1.080       .  S
C370        C375   1.507       .  S
C370        C371   1.417       .  A
C371        C372   1.405       .  A
C371        F376   1.356       .  S
C372        C373   1.404       .  A
C372        H377   1.083       .  S
C373        C374   1.405       .  A
C374        F378   1.356       .  S
C375        C380   1.418       .  A
C375        C384   1.407       .  A
C380        C381   1.404       .  A
C380        F385   1.357       .  S
C381        C382   1.402       .  A
C381        H386   1.083       .  S
C382        C383   1.410       .  A
C383        C384   1.398       .  A
C383        F387   1.358       .  S
C384        H388   1.080       .  S
C389        C390   1.405       .  A
C389        C394   1.400       .  A
C389        H399   1.080       .  S
C390        C395   1.491       .  S
C390        C391   1.409       .  A
C391        C392   1.399       .  A
C391        F396   1.357       .  S
C392        C393   1.406       .  A
C392        H397   1.083       .  S
C393        C394   1.406       .  A
C394        F398   1.356       .  S
C395        C400   1.405       .  A
C395        C404   1.411       .  A
C400        C401   1.393       .  A
C400        F405   1.357       .  S
C401        C402   1.407       .  A
C401        H406   1.084       .  S
C402        C403   1.405       .  A
C403        C404   1.406       .  A
C403        F407   1.357       .  S
C404        H408   1.083       .  S
C409        C410   1.411       .  A
C409        C414   1.404       .  A
C409        H419   1.082       .  S
C410        C415   1.497       .  S
C410        C411   1.413       .  A
C411        C412   1.393       .  A
C411        F416   1.357       .  S
C412        C413   1.402       .  A
C412        H417   1.084       .  S
C413        C414   1.403       .  A
C414        F418   1.356       .  S
C415        C420   1.415       .  A
C415        C424   1.402       .  A
C420        C421   1.405       .  A
C420        F425   1.353       .  S
C421        C422   1.400       .  A
C421        H426   1.083       .  S
C422        C423   1.412       .  A
C423        C424   1.391       .  A
C423        F427   1.358       .  S
C424        H428   1.082       .  S
C429        C430   1.411       .  A
C429        C434   1.404       .  A
C429        H439   1.082       .  S
C430        C435   1.495       .  S
C430        C431   1.409       .  A
C431        C432   1.396       .  A
C431        F436   1.357       .  S
C432        C433   1.405       .  A
C432        H437   1.084       .  S
C433        C434   1.403       .  A
C434        F438   1.356       .  S
C435        C440   1.406       .  A
C435        C444   1.410       .  A
C440        C441   1.394       .  A
C440        F445   1.357       .  S
C441        C442   1.410       .  A
C441        H446   1.084       .  S
C442        C443   1.404       .  A
C443        C444   1.407       .  A
C443        F447   1.357       .  S
C444        H448   1.081       .  S
C449        C450   1.407       .  A
C449        C454   1.398       .  A
C449        H459   1.084       .  S
C450        C455   1.487       .  S
C450        C451   1.403       .  A
C451        C452   1.403       .  A
C451        F456   1.357       .  S
C452        C453   1.413       .  A
C452        H457   1.083       .  S
C453        C454   1.409       .  A
C454        F458   1.358       .  S
C455        C460   1.407       .  A
C455        C464   1.406       .  A
C460        C461   1.397       .  A
C460        F465   1.358       .  S
C461        C462   1.403       .  A
C461        H466   1.083       .  S
C462        C463   1.405       .  A
C463        C464   1.404       .  A
C463        F467   1.357       .  S
C464        H468   1.082       .  S
C469        C470   1.408       .  A
C469        C474   1.390       .  A
C469        H479   1.083       .  S
C470        C475   1.496       .  S
C470        C471   1.410       .  A
C471        C472   1.407       .  A
C471        F476   1.354       .  S
C472        C473   1.406       .  A
C472        H477   1.083       .  S
C473        C474   1.401       .  A
C474        F478   1.358       .  S
C475        C480   1.417       .  A
C475        C484   1.400       .  A
C480        C481   1.413       .  A
C480        F485   1.356       .  S
C481        C482   1.404       .  A
C481        H486   1.083       .  S
C482        C483   1.409       .  A
C483        C484   1.386       .  A
C483        F487   1.357       .  S
C484        H488   1.084       .  S
C489        C490   1.405       .  A
C489        C494   1.398       .  A
C489        H499   1.083       .  S
C490        C495   1.488       .  S
C490        C491   1.410       .  A
C491        C492   1.397       .  A
C491        F496   1.355       .  S
C492        C493   1.399       .  A
C492        H497   1.081       .  S
C493        C494   1.404       .  A
C494        F498   1.357       .  S
C495        C500   1.401       .  A
C495        C504   1.411       .  A
C500        C501   1.389       .  A
C500        F505   1.358       .  S
C501        C502   1.412       .  A
C501        H506   1.082       .  S
C502        C503   1.407       .  A
C503        C504   1.406       .  A
C503        F507   1.357       .  S
C504        H508   1.083       .  S
C509        C510   1.400       .  A
C509        C514   1.393       .  A
C509        H519   1.083       .  S
C510        C515   1.489       .  S
C510        C511   1.410       .  A
C511        C512   1.405       .  A
C511        F516   1.357       .  S
C512        C513   1.405       .  A
C512        H517   1.083       .  S
C513        C514   1.416       .  A
C514        F518   1.358       .  S
C515        C520   1.407       .  A
C515        C524   1.406       .  A
C520        C521   1.398       .  A
C520        F525   1.353       .  S
C521        C522   1.400       .  A
C521        H526   1.082       .  S
C522        C523   1.405       .  A
C523        C524   1.402       .  A
C523        F527   1.357       .  S
C524        H528   1.083       .  S
C529        C530   1.404       .  A
C529        C534   1.407       .  A
C529        H539   1.083       .  S
C530        C535   1.486       .  S
C530        C531   1.407       .  A
C531        C532   1.395       .  A
C531        F536   1.358       .  S
C532        C533   1.405       .  A
C532        H537   1.083       .  S
C533        C534   1.413       .  A
C534        F538   1.356       .  S
C535        C540   1.409       .  A
C535        C544   1.404       .  A
C540        C541   1.396       .  A
C540        F545   1.358       .  S
C541        C542   1.400       .  A
C541        H546   1.084       .  S
C542        C543   1.405       .  A
C543        C544   1.404       .  A
C543       F1135   1.351       .  S
C544        H548   1.083       .  S
F547       C1131   1.352       .  S
C549        C550   1.407       .  A
C549        C554   1.397       .  A
C549        H559   1.084       .  S
C550        C555   1.485       .  S
C550        C551   1.403       .  A
C551        C552   1.401       .  A
C551        F556   1.357       .  S
C552        C553   1.412       .  A
C552        H557   1.083       .  S
C553        C554   1.406       .  A
C554        F558   1.358       .  S
C555        C560   1.408       .  A
C555        C564   1.405       .  A
C560        C561   1.397       .  A
C560        F565   1.358       .  S
C561        C562   1.404       .  A
C561        H566   1.083       .  S
C562        C563   1.404       .  A
C563        C564   1.402       .  A
C563        F567   1.357       .  S
C564        H568   1.083       .  S
C569        C570   1.405       .  A
C569        C574   1.393       .  A
C569        H579   1.082       .  S
C570        C575   1.492       .  S
C570        C571   1.409       .  A
C571        C572   1.397       .  A
C571        F576   1.350       .  S
C572        C573   1.403       .  A
C572        H577   1.082       .  S
C573        C574   1.409       .  A
C574        F578   1.357       .  S
C575        C580   1.409       .  A
C575        C584   1.413       .  A
C580        C581   1.388       .  A
C580        F585   1.357       .  S
C581        C582   1.401       .  A
C581        H586   1.084       .  S
C582        C583   1.403       .  A
C583        C584   1.403       .  A
C583        F587   1.357       .  S
C584        H588   1.082       .  S
O589       Ni597   1.934       .  S
O589        C599   1.286   1_554  A
O590       Ni597   1.938       .  S
O590        C600   1.282       .  A
O591       Ni597   1.934       .  S
O591        C601   1.286       .  A
O592       Ni597   1.935       .  S
O592        C602   1.283   1_554  A
O593       Ni598   1.930       .  S
O593        C602   1.285       .  A
O594       Ni598   1.937       .  S
O594        C601   1.283   1_556  A
O595       Ni598   1.937       .  S
O595        C600   1.288   1_556  A
O596       Ni598   1.942       .  S
O596        C599   1.283       .  A
Ni597      Ni598   2.383   1_554  S
C599        C627   1.494       .  S
C600        C690   1.493       .  S
C601        C716   1.491       .  S
C602        C653   1.487       .  S
O603       Ni611   1.924   1_665  S
O603        C613   1.284       .  A
O604        C614   1.284   1_554  A
O605        C615   1.287   1_554  A
O606       Ni611   1.945   1_565  S
O606        C616   1.284       .  A
O607        C616   1.287   1_556  A
O608       Ni612   1.943       .  S
O608        C615   1.283       .  A
O609       Ni612   1.933   1_455  S
O609        C614   1.285       .  A
O610        C613   1.283   1_556  A
C613        C679   1.486       .  S
C614        C638   1.492       .  S
C615        C664   1.497       .  S
C616        C705   1.498       .  S
O617       Ni623   1.939       .  S
O617        C638   1.271       .  A
O618       Ni641   1.956       .  S
O618        C627   1.276       .  A
O619       Ni623   1.913       .  S
O619       Ni641   1.945       .  S
O619       Ni635   1.918   1_556  S
O619        H642   0.966       .  S
C620        O637   1.274       .  A
C620        O629   1.277       .  A
C620       C1161   1.479       .  S
O621       Ni640   1.918       .  S
O621        C627   1.265   1_554  A
O622       Ni640   1.899       .  S
O622        C624   1.269       .  A
Ni623       O626   1.917       .  S
Ni623       O628   1.905       .  S
C624        O634   1.274       .  A
C624       C1121   1.483       .  S
O625       Ni641   1.938       .  S
O625        C631   1.283       .  A
O626        C631   1.274       .  A
O628        C630   1.268       .  A
O629       Ni640   1.921       .  S
C630        O636   1.272       .  A
C630       C1141   1.483       .  S
C631       C1101   1.492       .  S
H632        O633   0.966   1_556  S
O633       Ni641   1.923   1_554  S
O633       Ni635   1.918       .  S
O633       Ni640   1.912       .  S
O634       Ni635   1.934       .  S
Ni635       O639   1.929       .  S
Ni635       O637   1.910       .  S
O636       Ni641   1.934       .  S
C638        O639   1.271   1_556  A
O643       Ni649   1.935       .  S
O643        C664   1.271   1_554  A
O644       Ni667   1.928       .  S
O644        C653   1.272   1_554  A
O645       Ni649   1.897   1_556  S
O645       Ni667   1.912   1_556  S
O645       Ni661   1.924       .  S
O645        H668   0.966       .  S
C646        O663   1.286       .  A
C646        O655   1.275       .  A
C646       C1090   1.487       .  S
O647       Ni666   1.936       .  S
O647        C653   1.271       .  A
O648       Ni666   1.910       .  S
O648        C650   1.270       .  A
Ni649       O652   1.940       .  S
Ni649       O654   1.891       .  S
C650        O660   1.273       .  A
C650       C1041   1.490       .  S
O651       Ni667   1.909       .  S
O651        C657   1.275       .  A
O652        C657   1.282       .  A
O654        C656   1.267       .  A
O655       Ni666   1.908       .  S
C656        O662   1.278       .  A
C656       C1070   1.482       .  S
C657       C1030   1.484       .  S
H658        O659   0.966       .  S
O659       Ni667   1.906   1_556  S
O659       Ni661   1.933       .  S
O659       Ni666   1.902       .  S
O660       Ni661   1.935       .  S
Ni661       O665   1.954       .  S
Ni661       O663   1.939       .  S
O662       Ni667   1.948       .  S
C664        O665   1.280       .  A
O669       Ni675   1.920       .  S
O669        C690   1.265   1_556  A
O670       Ni693   1.929       .  S
O670        C679   1.270   1_556  A
O671       Ni675   1.911   1_554  S
O671       Ni693   1.911   1_554  S
O671       Ni687   1.909       .  S
O671        H694   0.966       .  S
C672        O689   1.275       .  A
C672        O681   1.269       .  A
C672        C961   1.483       .  S
O673       Ni692   1.924       .  S
O673        C679   1.268       .  A
O674       Ni692   1.892       .  S
O674        C676   1.263       .  A
Ni675       O678   1.917       .  S
Ni675       O680   1.902       .  S
C676        O686   1.279       .  A
C676       C1010   1.480       .  S
O677       Ni693   1.918       .  S
O677        C683   1.279       .  A
O678        C683   1.276       .  A
O680        C682   1.268       .  A
O681       Ni692   1.922       .  S
C682        O688   1.268       .  A
C682        C941   1.475       .  S
C683        C981   1.478       .  S
H684        O685   0.966       .  S
O685       Ni693   1.939   1_554  S
O685       Ni687   1.958       .  S
O685       Ni692   1.912       .  S
O686       Ni687   1.962       .  S
Ni687       O691   1.953       .  S
Ni687       O689   1.923       .  S
O688       Ni693   1.919       .  S
C690        O691   1.278       .  A
O695       Ni701   1.935       .  S
O695        C716   1.271       .  A
O696       Ni719   1.960       .  S
O696        C705   1.281       .  A
O697       Ni701   1.905       .  S
O697       Ni719   1.941       .  S
O697       Ni713   1.911   1_554  S
O697        H720   0.967       .  S
C698        O715   1.277       .  A
C698        O707   1.282       .  A
C698        C890   1.489       .  S
O699       Ni718   1.927       .  S
O699        C705   1.269   1_556  A
O700       Ni718   1.895       .  S
O700        C702   1.267       .  A
Ni701       O704   1.910       .  S
Ni701       O706   1.908       .  S
C702        O712   1.278       .  A
C702        C921   1.482       .  S
O703       Ni719   1.942       .  S
O703        C709   1.287       .  A
O704        C709   1.274       .  A
O706        C708   1.268       .  A
O707       Ni718   1.934       .  S
C708        O714   1.273       .  A
C708        C861   1.486       .  S
C709        C901   1.488       .  S
H710        O711   0.968       .  S
O711       Ni719   1.924       .  S
O711       Ni713   1.912   1_554  S
O711       Ni718   1.897   1_554  S
O712       Ni713   1.949       .  S
Ni713       O717   1.933       .  S
Ni713       O715   1.914       .  S
O714       Ni719   1.938       .  S
C716        O717   1.274   1_554  A
N721        C726   1.351       .  A
N721        C725   1.349   1_655  A
N721        H753   1.037       .  S
N722        C729   1.349       .  A
N722        C730   1.348       .  A
N723        C728   1.354   1_455  A
N723        C727   1.355       .  A
N723        H754   1.039       .  S
N724        C731   1.350       .  A
N724        C732   1.347       .  A
C725        C733   1.388       .  A
C725        C741   1.413       .  A
C726        C742   1.408       .  A
C726        C734   1.385       .  A
C727        C735   1.388       .  A
C727        C744   1.420       .  A
C728        C743   1.416       .  A
C728        C736   1.387   1_655  A
C729        C741   1.412       .  A
C729        C737   1.387       .  A
C730        C744   1.408       .  A
C730        C738   1.385       .  A
C731        C739   1.385       .  A
C731        C742   1.410       .  A
C732        C740   1.386       .  A
C732        C743   1.408       .  A
C733        C734   1.368   1_455  A
C733        H745   1.082       .  S
C734        H746   1.082       .  S
C735        C736   1.368       .  A
C735        H747   1.081       .  S
C736        H748   1.082   1_455  S
C737        C738   1.381       .  A
C737        H749   1.082       .  S
C738        H750   1.082       .  S
C739        C740   1.382       .  A
C739        H751   1.082       .  S
C740        H752   1.082       .  S
C741       C1170   1.483       .  S
C742       C1061   1.482       .  S
C743       C1081   1.481       .  S
C744       C1150   1.486       .  S
N755        C760   1.352       .  A
N755        C759   1.354   1_655  A
N755        H787   1.039       .  S
N756        C763   1.348       .  A
N756        C764   1.349       .  A
N757        C762   1.349       .  A
N757        C761   1.351   1_655  A
N757        H788   1.039       .  S
N758        C765   1.348       .  A
N758        C766   1.349       .  A
C759        C767   1.386   1_455  A
C759        C775   1.415       .  A
C760        C776   1.417       .  A
C760        C768   1.388       .  A
C761        C769   1.386       .  A
C761        C778   1.410       .  A
C762        C777   1.413       .  A
C762        C770   1.386       .  A
C763        C775   1.409       .  A
C763        C771   1.385       .  A
C764        C778   1.412       .  A
C764        C772   1.386       .  A
C765        C773   1.386       .  A
C765        C776   1.408       .  A
C766        C774   1.387       .  A
C766        C777   1.412       .  A
C767        C768   1.371       .  A
C767        H779   1.082       .  S
C768        H780   1.082       .  S
C769        C770   1.368   1_455  A
C769        H781   1.080       .  S
C770        H782   1.081       .  S
C771        C772   1.383       .  A
C771        H783   1.082       .  S
C772        H784   1.082       .  S
C773        C774   1.385       .  A
C773        H785   1.083       .  S
C774        H786   1.082       .  S
C775        C910   1.484       .  S
C776       C1001   1.483       .  S
C777        C990   1.488       .  S
C778        C930   1.484       .  S
N789        C794   1.354       .  A
N789        C793   1.351       .  A
N789        H821   1.041       .  S
N790        C797   1.346       .  A
N790        C798   1.349       .  A
N791        C796   1.351       .  A
N791        C795   1.352       .  A
N791        H822   1.039       .  S
N792        C799   1.351       .  A
N792        C800   1.347       .  A
C793        C801   1.389       .  A
C793        C809   1.416       .  A
C794        C810   1.414       .  A
C794        C802   1.384       .  A
C795        C803   1.384       .  A
C795        C812   1.413       .  A
C796        C811   1.415       .  A
C796        C804   1.391       .  A
C797        C809   1.407       .  A
C797        C805   1.385       .  A
C798        C812   1.411       .  A
C798        C806   1.386       .  A
C799        C807   1.385       .  A
C799        C810   1.412       .  A
C800        C808   1.387       .  A
C800        C811   1.413       .  A
C801        C802   1.370       .  A
C801        H813   1.081       .  S
C802        H814   1.082       .  S
C803        C804   1.369       .  A
C803        H815   1.082       .  S
C804        H816   1.080       .  S
C805        C806   1.385       .  A
C805        H817   1.082       .  S
C806        H818   1.082       .  S
C807        C808   1.384       .  A
C807        H819   1.082       .  S
C808        H820   1.082       .  S
C809        C870   1.483       .  S
C810        C970   1.500       .  S
C811        C950   1.479       .  S
C812        C881   1.492       .  S
N823        C828   1.351       .  A
N823        C827   1.352       .  A
N823        H855   1.039       .  S
N824        C831   1.349       .  A
N824        C832   1.348       .  A
N825        C830   1.354       .  A
N825        C829   1.357       .  A
N825        H856   1.038       .  S
N826        C833   1.351       .  A
N826        C834   1.349       .  A
C827        C835   1.390       .  A
C827        C843   1.416       .  A
C828        C844   1.409       .  A
C828        C836   1.384       .  A
C829        C837   1.386       .  A
C829        C846   1.419       .  A
C830        C845   1.421       .  A
C830        C838   1.388       .  A
C831        C843   1.411       .  A
C831        C839   1.386       .  A
C832        C846   1.411       .  A
C832        C840   1.386       .  A
C833        C841   1.385       .  A
C833        C844   1.411       .  A
C834        C842   1.386       .  A
C834        C845   1.411       .  A
C835        C836   1.368       .  A
C835        H847   1.079       .  S
C836        H848   1.083       .  S
C837        C838   1.368       .  A
C837        H849   1.082       .  S
C838        H850   1.080       .  S
C839        C840   1.382       .  A
C839        H851   1.082       .  S
C840        H852   1.082       .  S
C841        C842   1.383       .  A
C841        H853   1.082       .  S
C842        H854   1.082       .  S
C843       C1130   1.484       .  S
C844       C1021   1.487       .  S
C845       C1050   1.486       .  S
C846       C1110   1.487       .  S
C857        C858   1.407       .  A
C857        C862   1.398       .  A
C857        H867   1.084       .  S
C858        C863   1.487       .  S
C858        C859   1.403       .  A
C859        C860   1.402       .  A
C859        F864   1.357       .  S
C860        C861   1.412       .  A
C860        H865   1.083       .  S
C861        C862   1.406       .  A
C862        F866   1.357       .  S
C863        C868   1.407       .  A
C863        C872   1.407       .  A
C868        C869   1.395       .  A
C868        F873   1.358       .  S
C869        C870   1.403       .  A
C869        H874   1.084       .  S
C870        C871   1.404       .  A
C871        C872   1.404       .  A
C872        H876   1.083       .  S
C877        C878   1.404       .  A
C877        C882   1.394       .  A
C877        H887   1.082       .  S
C878        C883   1.494       .  S
C878        C879   1.413       .  A
C879        C880   1.406       .  A
C879        F884   1.357       .  S
C880        C881   1.402       .  A
C881        C882   1.408       .  A
C882        F886   1.358       .  S
C883        C888   1.408       .  A
C883        C892   1.409       .  A
C888        C889   1.396       .  A
C888        F893   1.358       .  S
C889        C890   1.410       .  A
C889        H894   1.083       .  S
C890        C891   1.409       .  A
C891        C892   1.404       .  A
C891        F895   1.357       .  S
C892        H896   1.082       .  S
C897        C898   1.398       .  A
C897        C902   1.391       .  A
C897        H907   1.083       .  S
C898        C903   1.491       .  S
C898        C899   1.412       .  A
C899        C900   1.409       .  A
C899        F904   1.357       .  S
C900        C901   1.406       .  A
C900        H905   1.083       .  S
C901        C902   1.414       .  A
C902        F906   1.359       .  S
C903        C908   1.411       .  A
C903        C912   1.407       .  A
C908        C909   1.395       .  A
C908        F913   1.355       .  S
C909        C910   1.397       .  A
C909        H914   1.080       .  S
C910        C911   1.405       .  A
C911        C912   1.403       .  A
C911        F915   1.357       .  S
C912        H916   1.083       .  S
C917        C918   1.399       .  A
C917        C922   1.386       .  A
C917        H927   1.083       .  S
C918        C923   1.495       .  S
C918        C919   1.418       .  A
C919        C920   1.412       .  A
C919        F924   1.357       .  S
C920        C921   1.404       .  A
C920        H925   1.083       .  S
C921        C922   1.408       .  A
C922        F926   1.354       .  S
C923        C928   1.415       .  A
C923        C932   1.408       .  A
C928        C929   1.393       .  A
C928        F933   1.358       .  S
C929        C930   1.398       .  A
C929        H934   1.084       .  S
C930        C931   1.405       .  A
C931        C932   1.404       .  A
C931        F935   1.353       .  S
C932        H936   1.083       .  S
C937        C938   1.401       .  A
C937        C942   1.400       .  A
C937        H947   1.083       .  S
C938        C943   1.476       .  S
C938        C939   1.407       .  A
C939        C940   1.393       .  A
C939        F944   1.358       .  S
C940        C941   1.402       .  A
C940        H945   1.083       .  S
C941        C942   1.412       .  A
C942        F946   1.358       .  S
C943        C948   1.404       .  A
C943        C952   1.403       .  A
C948        C949   1.401       .  A
C948        F953   1.357   1_565  S
C949        C950   1.405       .  A
C949        H954   1.079   1_565  S
C950        C951   1.403       .  A
C951        C952   1.391       .  A
C951        F955   1.358       .  S
C952        H956   1.084       .  S
C957        C958   1.409       .  A
C957        C962   1.399       .  A
C957        H967   1.080       .  S
C958        C963   1.509       .  S
C958        C959   1.417       .  A
C959        C960   1.404       .  A
C959        F964   1.356       .  S
C960        C961   1.403       .  A
C960        H965   1.083       .  S
C961        C962   1.406       .  A
C962        F966   1.356       .  S
C963        C968   1.419       .  A
C963        C972   1.408       .  A
C968        C969   1.406       .  A
C968        F973   1.357       .  S
C969        C970   1.403       .  A
C969        H974   1.083       .  S
C970        C971   1.409       .  A
C971        C972   1.397       .  A
C971        F975   1.358       .  S
C972        H976   1.080       .  S
C977        C978   1.406       .  A
C977        C982   1.400       .  A
C977        H987   1.081       .  S
C978        C983   1.488       .  S
C978        C979   1.408       .  A
C979        C980   1.396       .  A
C979        F984   1.357       .  S
C980        C981   1.404       .  A
C980        H985   1.083       .  S
C981        C982   1.407       .  A
C982        F986   1.356       .  S
C983        C988   1.405       .  A
C983        C992   1.411       .  A
C988        C989   1.392       .  A
C988        F993   1.357       .  S
C989        C990   1.406       .  A
C989        H994   1.084       .  S
C990        C991   1.404       .  A
C991        C992   1.404       .  A
C991        F995   1.357       .  S
C992        H996   1.083       .  S
C997        C998   1.411       .  A
C997       C1002   1.404       .  A
C997       H1007   1.082       .  S
C998       C1003   1.499       .  S
C998        C999   1.415       .  A
C999       C1000   1.391       .  A
C999       F1004   1.357       .  S
C1000      C1001   1.400       .  A
C1000      H1005   1.084       .  S
C1001      C1002   1.404       .  A
C1002      F1006   1.357       .  S
C1003      C1008   1.417       .  A
C1003      C1012   1.402       .  A
C1008      C1009   1.405       .  A
C1008      F1013   1.353       .  S
C1009      C1010   1.400       .  A
C1009      H1014   1.083       .  S
C1010      C1011   1.411       .  A
C1011      C1012   1.389       .  A
C1011      F1015   1.357       .  S
C1012      H1016   1.082       .  S
C1017      C1018   1.411       .  A
C1017      C1022   1.405       .  A
C1017      H1027   1.082       .  S
C1018      C1023   1.493       .  S
C1018      C1019   1.408       .  A
C1019      C1020   1.394       .  A
C1019      F1024   1.357       .  S
C1020      C1021   1.404       .  A
C1020      H1025   1.084       .  S
C1021      C1022   1.403       .  A
C1022      F1026   1.356       .  S
C1023      C1028   1.406       .  A
C1023      C1032   1.409       .  A
C1028      C1029   1.393       .  A
C1028      F1033   1.357       .  S
C1029      C1030   1.409       .  A
C1029      H1034   1.084       .  S
C1030      C1031   1.405       .  A
C1031      C1032   1.407       .  A
C1031      F1035   1.357       .  S
C1032      H1036   1.081       .  S
C1037      C1038   1.407       .  A
C1037      C1042   1.398       .  A
C1037      H1047   1.084       .  S
C1038      C1043   1.489       .  S
C1038      C1039   1.403       .  A
C1039      C1040   1.403       .  A
C1039      F1044   1.357       .  S
C1040      C1041   1.413       .  A
C1040      H1045   1.083       .  S
C1041      C1042   1.408       .  A
C1042      F1046   1.358       .  S
C1043      C1048   1.407       .  A
C1043      C1052   1.407       .  A
C1048      C1049   1.396       .  A
C1048      F1053   1.358       .  S
C1049      C1050   1.403       .  A
C1049      H1054   1.083       .  S
C1050      C1051   1.405       .  A
C1051      C1052   1.405       .  A
C1051      F1055   1.357       .  S
C1052      H1056   1.082       .  S
C1057      C1058   1.406       .  A
C1057      C1062   1.388       .  A
C1057      H1067   1.083       .  S
C1058      C1063   1.489       .  S
C1058      C1059   1.409       .  A
C1059      C1060   1.408       .  A
C1059      F1064   1.355       .  S
C1060      C1061   1.406       .  A
C1060      H1065   1.083       .  S
C1061      C1062   1.403       .  A
C1062      F1066   1.359       .  S
C1063      C1068   1.415       .  A
C1063      C1072   1.398       .  A
C1068      C1069   1.412       .  A
C1068      F1073   1.357       .  S
C1069      C1070   1.405       .  A
C1069      H1074   1.083       .  S
C1070      C1071   1.410       .  A
C1071      C1072   1.385       .  A
C1071      F1075   1.358       .  S
C1072      H1076   1.084       .  S
C1077      C1078   1.406       .  A
C1077      C1082   1.401       .  A
C1077      H1087   1.083       .  S
C1078      C1083   1.488       .  S
C1078      C1079   1.409       .  A
C1079      C1080   1.395       .  A
C1079      F1084   1.356       .  S
C1080      C1081   1.398       .  A
C1080      H1085   1.080       .  S
C1081      C1082   1.404       .  A
C1082      F1086   1.357       .  S
C1083      C1088   1.402       .  A
C1083      C1092   1.411       .  A
C1088      C1089   1.388       .  A
C1088      F1093   1.358       .  S
C1089      C1090   1.410       .  A
C1089      H1094   1.082       .  S
C1090      C1091   1.408       .  A
C1091      C1092   1.408       .  A
C1091      F1095   1.357       .  S
C1092      H1096   1.083       .  S
C1097      C1098   1.402       .  A
C1097      C1102   1.394       .  A
C1097      H1107   1.083       .  S
C1098      C1103   1.495       .  S
C1098      C1099   1.412       .  A
C1099      C1100   1.408       .  A
C1099      F1104   1.357       .  S
C1100      C1101   1.406       .  A
C1100      H1105   1.083       .  S
C1101      C1102   1.415       .  A
C1102      F1106   1.358       .  S
C1103      C1108   1.409       .  A
C1103      C1112   1.408       .  A
C1108      C1109   1.398       .  A
C1108      F1113   1.353       .  S
C1109      C1110   1.400       .  A
C1109      H1114   1.082       .  S
C1110      C1111   1.405       .  A
C1111      C1112   1.404       .  A
C1111      F1115   1.357       .  S
C1112      H1116   1.083       .  S
C1117      C1118   1.403       .  A
C1117      C1122   1.405       .  A
C1117      H1127   1.083       .  S
C1118      C1123   1.484       .  S
C1118      C1119   1.407       .  A
C1119      C1120   1.394       .  A
C1119      F1124   1.358       .  S
C1120      C1121   1.404       .  A
C1120      H1125   1.084       .  S
C1121      C1122   1.412       .  A
C1122      F1126   1.356       .  S
C1123      C1128   1.408       .  A
C1123      C1132   1.404       .  A
C1128      C1129   1.396       .  A
C1128      F1133   1.358       .  S
C1129      C1130   1.401       .  A
C1129      H1134   1.084       .  S
C1130      C1131   1.405       .  A
C1131      C1132   1.403       .  A
C1132      H1136   1.083       .  S
C1137      C1138   1.407       .  A
C1137      C1142   1.397       .  A
C1137      H1147   1.084       .  S
C1138      C1143   1.485       .  S
C1138      C1139   1.403       .  A
C1139      C1140   1.401       .  A
C1139      F1144   1.357       .  S
C1140      C1141   1.412       .  A
C1140      H1145   1.083       .  S
C1141      C1142   1.405       .  A
C1142      F1146   1.357       .  S
C1143      C1148   1.408       .  A
C1143      C1152   1.405       .  A
C1148      C1149   1.397       .  A
C1148      F1153   1.358       .  S
C1149      C1150   1.404       .  A
C1149      H1154   1.083       .  S
C1150      C1151   1.404       .  A
C1151      C1152   1.402       .  A
C1151      F1155   1.357       .  S
C1152      H1156   1.083       .  S
C1157      C1158   1.405       .  A
C1157      C1162   1.395       .  A
C1157      H1167   1.082       .  S
C1158      C1163   1.492       .  S
C1158      C1159   1.410       .  A
C1159      C1160   1.398       .  A
C1159      F1164   1.352       .  S
C1160      C1161   1.402       .  A
C1160      H1165   1.083       .  S
C1161      C1162   1.410       .  A
C1162      F1166   1.357       .  S
C1163      C1168   1.409       .  A
C1163      C1172   1.412       .  A
C1168      C1169   1.392       .  A
C1168      F1173   1.357       .  S
C1169      C1170   1.404       .  A
C1169      H1174   1.084       .  S
C1170      C1171   1.401       .  A
C1171      C1172   1.401       .  A
C1171      F1175   1.357       .  S
C1172      H1176   1.082       .  S
