geometry optimzed in LAMMPS
_audit_creation_date              2020-11-30 
_audit_creation_method            'lammps2cif' 
_symmetry_space_group_name_H-M    'P1' 
_symmetry_Int_Tables_number       1 
_symmetry_cell_setting            triclinic 
loop_ 
_symmetry_equiv_pos_as_xyz 
  x,y,z 
_cell_length_a                    45.11949599 
_cell_length_b                    43.58195842596125 
_cell_length_c                    43.56075248768126 
_cell_angle_alpha                 89.85518634177849 
_cell_angle_beta                  92.0094971791552 
_cell_angle_gamma                 88.02019878591469 
loop_ 
_atom_site_label 
_atom_site_type_symbol 
_atom_site_fract_x 
_atom_site_fract_y 
_atom_site_fract_z 
_atom_site_charge 
O1          O  0.46785155  0.21948241  0.41766831    -0.76400
C2          C  0.49020206  0.15238516  0.49041694     0.84700
O3          O  0.43766002  0.25153247  0.00323843    -0.77500
O4          O  0.02859807  0.24699935  0.06504238    -0.79000
O5          O  0.05209025  0.26151376  0.46443273    -0.78800
O6          O  0.99335228  0.26433701  0.41947980    -0.77400
Zn7        Zn  0.46098973  0.21116052  0.46223928     1.55700
O8          O  0.08139725  0.23766977  0.01095847    -0.78800
Cd9        Cd  0.00706687  0.26966516  0.46327940     1.59700
Cd10       Cd  0.48153817  0.26240972  0.01214140     1.59600
O11         O  0.00035067  0.31472196  0.47420852    -0.78800
O12         O  0.48414545  0.23860731  0.48764523    -1.89300
Cd13       Cd  0.03772554  0.22973068  0.02232074     1.59900
O14         O  0.48582636  0.30951513  0.00487536    -0.78700
O15         O  0.03291192  0.18246878  0.02412098    -0.77400
C16         C  0.40112177  0.23462781  0.48580638     0.85200
C17         C  0.48452225  0.23755119  0.40379576     0.84800
O18         O  0.47257963  0.16685268  0.47154708    -0.76300
C19         C  0.09236747  0.25212716  0.98871333     0.85600
O20         O  0.41697217  0.21666014  0.46958322    -0.76400
C21         C  0.00413270  0.33691801  0.98772075     0.85700
C22         C  0.00702869  0.26362742  0.07469730     0.86100
O23         O  0.49294506  0.25419545  0.05716668    -0.78900
O24         O  0.00677863  0.33517702  0.25700089    -0.76400
C25         C  0.99249544  0.26511392  0.32386458     0.84700
O26         O  0.07101546  0.24280161  0.24060758    -0.77500
O27         O  0.47990897  0.18496561  0.25616927    -0.79000
O28         O  0.42591666  0.27460040  0.21613377    -0.78800
O29         O  0.47607898  0.32968211  0.21847421    -0.77400
Zn30       Zn  0.01919946  0.29149361  0.26744297     1.55700
O31         O  0.42680538  0.24133694  0.25508106    -0.78800
Cd32       Cd  0.47012481  0.28372743  0.21117580     1.59700
Cd33       Cd  0.02884571  0.23332582  0.22557901     1.59600
O34         O  0.47920735  0.27593246  0.16658699    -0.78800
O35         O  0.99830167  0.26210788  0.24213806    -1.89300
Cd36       Cd  0.47174196  0.23156839  0.26262378     1.59900
O37         O  0.02878637  0.23862567  0.17947405    -0.78700
O38         O  0.48151069  0.23991068  0.30719487    -0.77400
C39         C  0.08116127  0.26659729  0.25343436     0.85200
C40         C  0.99068753  0.34808950  0.23577234     0.84800
O41         O  0.00918716  0.28369362  0.31076766    -0.76300
C42         C  0.41269862  0.25810977  0.23511797     0.85600
O43         O  0.06404166  0.28779039  0.26359233    -0.76400
C44         C  0.49786932  0.25834247  0.15360130     0.85700
C45         C  0.49710170  0.17023979  0.23841434     0.86100
O46         O  0.02155865  0.18779869  0.23390288    -0.78900
O47         O  0.27347658  0.31493786  0.01074121    -0.76400
C48         C  0.26435825  0.25289370  0.08431337     0.84700
O49         O  0.30647341  0.22334642  0.48491647    -0.77500
O50         O  0.24826275  0.17212653  0.02999019    -0.79000
O51         O  0.16388956  0.24920331  0.47537574    -0.78800
O52         O  0.21139441  0.30968420  0.47636081    -0.77400
Zn53       Zn  0.28509994  0.27134882  0.02228143     1.55700
O54         O  0.19239104  0.22352720  0.02214580    -0.78800
Cd55       Cd  0.20791591  0.26201734  0.47100626     1.59700
Cd56       Cd  0.26310276  0.20982716  0.47934538     1.59600
O57         O  0.22081888  0.25040876  0.42766131    -0.78800
O58         O  0.26037652  0.24213520  0.00095785    -1.89300
Cd59       Cd  0.23732619  0.21844700  0.03028251     1.59900
O60         O  0.25254585  0.20984795  0.43327768    -0.78700
O61         O  0.24567328  0.23430254  0.07339156    -0.77400
C62         C  0.34284088  0.24506831  0.99787325     0.85200
C63         C  0.25416175  0.32788335  0.99254213     0.84800
O64         O  0.28169551  0.26743584  0.06764851    -0.76300
C65         C  0.15234804  0.22843706  0.49145774     0.85600
O66         O  0.32786624  0.26453350  0.01314426    -0.76400
C67         C  0.23720033  0.22895813  0.41668803     0.85700
C68         C  0.24662308  0.15310861  0.51655707     0.86100
O69         O  0.26185476  0.16553384  0.49613205    -0.78900
O70         O  0.26382394  0.32548410  0.26760472    -0.76400
C71         C  0.24507410  0.25127938  0.33388430     0.84700
O72         O  0.31926673  0.24192821  0.23321075    -0.77500
O73         O  0.23943831  0.17734760  0.26349565    -0.79000
O74         O  0.17537469  0.27127715  0.23908896    -0.78800
O75         O  0.22510130  0.32610732  0.23451151    -0.77400
Zn76       Zn  0.27128588  0.27994171  0.27793419     1.55700
O77         O  0.18100981  0.22673142  0.26423284    -0.78800
Cd78       Cd  0.21847812  0.27987019  0.22748075     1.59700
Cd79       Cd  0.27592693  0.23060324  0.22416160     1.59600
O80         O  0.22287404  0.27103127  0.18144608    -0.78800
O81         O  0.24838492  0.25354068  0.25106335    -1.89300
Cd82       Cd  0.22623054  0.22213265  0.27320378     1.59900
O83         O  0.26490087  0.24220161  0.17989312    -0.78700
O84         O  0.23294236  0.22960522  0.31907726    -0.77400
C85         C  0.33110114  0.25653499  0.25546583     0.85200
C86         C  0.24444430  0.34006978  0.25060979     0.84800
O87         O  0.25906175  0.27235618  0.32095338    -0.76300
C88         C  0.16463164  0.24824839  0.25229020     0.85600
O89         O  0.31559064  0.27036849  0.27541581    -0.76400
C90         C  0.24316717  0.25704484  0.16680139     0.85700
C91         C  0.25842511  0.16602101  0.24535045     0.86100
O92         O  0.27384225  0.18306065  0.22877917    -0.78900
N93         N  0.48478246  0.45537121  0.46600741    -0.34500
N94         N  0.49742817  0.02133783  0.47640157    -0.55000
N95         N  0.49815373  0.02156604  0.04352040    -0.34500
N96         N  0.48763470  0.45683983  0.03637600    -0.55000
C97         C  0.48234566  0.46152293  0.43535159     0.29100
C98         C  0.47067339  0.42900900  0.47101233     0.29100
C99         C  0.49091765  0.05097319  0.03522383     0.29100
C100        C  0.49052813  0.01778351  0.07324786     0.29100
C101        C  0.50535463  0.01548665  0.44713554     0.37700
C102        C  0.50680939  0.04974981  0.48337167     0.37700
C103        C  0.49051584  0.42604113  0.03228740     0.37700
C104        C  0.49125492  0.46199571  0.06706351     0.37700
C105        C  0.46653103  0.43875432  0.42080742    -0.19800
C106        C  0.45894213  0.41844079  0.44325097    -0.19800
C107        C  0.47875402  0.06613838  0.06001522    -0.19800
C108        C  0.47833891  0.04521913  0.08383341    -0.19800
C109        C  0.52004374  0.04016516  0.43563758    -0.20800
C110        C  0.52099449  0.06180656  0.45853684    -0.20800
C111        C  0.49579770  0.41165834  0.06048310    -0.20800
C112        C  0.49622299  0.43426822  0.08235912    -0.20800
C113        C  0.49476030  0.48671396  0.42018895    -0.16200
C114        C  0.47044530  0.41273657  0.49937887    -0.16200
C115        C  0.48872611  0.49117289  0.08167120    -0.16200
C116        C  0.50059712  0.06585095  0.51087778    -0.16200
H117        H  0.46077553  0.43702410  0.39661741     0.16700
H118        H  0.44649516  0.39792634  0.43943964     0.16700
H119        H  0.47088419  0.08985277  0.06086257     0.16700
H120        H  0.46937698  0.04964627  0.10611009     0.16700
H121        H  0.52935144  0.04232823  0.41321838     0.15000
H122        H  0.53100659  0.08393835  0.45700825     0.15000
H123        H  0.49900856  0.38732241  0.06498590     0.15000
H124        H  0.49975706  0.43047544  0.10675686     0.15000
H125        H  0.49818954  0.46637924  0.48213832     0.28300
H126        H  0.51014586  0.00590091  0.03040895     0.28300
N127        N  0.99603207  0.47744082  0.29260130    -0.34500
N128        N  0.98762214  0.04223658  0.29183737    -0.55000
N129        N  0.99514897  0.04543762  0.22395398    -0.34500
N130        N  0.99647575  0.48027515  0.22305034    -0.55000
C131        C  0.98722504  0.48117550  0.32203928     0.29100
C132        C  0.99024834  0.44833006  0.28407270     0.29100
C133        C  0.98486013  0.07422907  0.23008341     0.29100
C134        C  0.99295830  0.04157987  0.19297750     0.29100
C135        C  0.99053127  0.03703089  0.32258197     0.37700
C136        C  0.98878140  0.07297841  0.28778477     0.37700
C137        C  0.00425433  0.45047836  0.22877709     0.37700
C138        C  0.00466031  0.48643804  0.19398001     0.37700
C139        C  0.97558937  0.45408726  0.33208805    -0.19800
C140        C  0.97771768  0.43336746  0.30835872    -0.19800
C141        C  0.97588042  0.08874593  0.20274482    -0.19800
C142        C  0.98110984  0.06826484  0.17943560    -0.19800
C143        C  0.99333062  0.06464057  0.33795298    -0.20800
C144        C  0.99227893  0.08729722  0.31600957    -0.20800
C145        C  0.01756355  0.43778174  0.20327354    -0.20800
C146        C  0.01777094  0.46048971  0.18131257    -0.20800
C147        C  0.98968862  0.50841669  0.33989649    -0.16200
C148        C  0.99794596  0.43408693  0.25594329    -0.16200
C149        C  0.00018036  0.51524105  0.17882679    -0.16200
C150        C  0.98547039  0.08872845  0.25928483    -0.16200
H151        H  0.96605902  0.44969416  0.35400261     0.16700
H152        H  0.97063205  0.40990248  0.30889483     0.16700
H153        H  0.96681468  0.11192145  0.19978431     0.16700
H154        H  0.97674537  0.07268510  0.15527187     0.16700
H155        H  0.99590331  0.06828915  0.36241589     0.15000
H156        H  0.99386573  0.11162171  0.32043091     0.15000
H157        H  0.02653276  0.41461800  0.20076270     0.15000
H158        H  0.02718550  0.45829872  0.15890401     0.15000
H159        H  0.00812607  0.49258181  0.27996535     0.28300
H160        H  0.00618197  0.03083985  0.23977977     0.28300
N161        N  0.24793321  0.45500939  0.47278107    -0.34500
N162        N  0.26826512  0.45913087  0.04061894    -0.55000
N163        N  0.27447867  0.02725013  0.04318066    -0.34500
N164        N  0.26630708  0.02177497  0.47590729    -0.55000
C165        C  0.25120637  0.42464715  0.47953572     0.29100
C166        C  0.25435624  0.45866984  0.44272020     0.29100
C167        C  0.28092907  0.02260495  0.07360465     0.29100
C168        C  0.28541392  0.05457944  0.03532275     0.29100
C169        C  0.26415487  0.42891726  0.03534384     0.37700
C170        C  0.26514795  0.46348996  0.07120165     0.37700
C171        C  0.25865140  0.01644514  0.44602759     0.37700
C172        C  0.26107541  0.05208396  0.48061336     0.37700
C173        C  0.25970865  0.40892059  0.45340743    -0.19800
C174        C  0.26153977  0.43026236  0.43028364    -0.19800
C175        C  0.29599563  0.04752855  0.08514883    -0.19800
C176        C  0.29884679  0.06763974  0.06102908    -0.19800
C177        C  0.25833490  0.41416860  0.06257614    -0.20800
C178        C  0.25910220  0.43591725  0.08514705    -0.20800
C179        C  0.24837931  0.04339523  0.43185420    -0.20800
C180        C  0.25012166  0.06600097  0.45364414    -0.20800
C181        C  0.26771891  0.41368361  0.00693945    -0.16200
C182        C  0.25273030  0.48670528  0.42582903    -0.16200
C183        C  0.28124106  0.06914649  0.00623096    -0.16200
C184        C  0.26983265  0.49138374  0.08714218    -0.16200
H185        H  0.26450228  0.38455798  0.45114528     0.16700
H186        H  0.26770272  0.42532662  0.40699235     0.16700
H187        H  0.30371430  0.05118014  0.10861278     0.16700
H188        H  0.30924215  0.08962983  0.06239196     0.16700
H189        H  0.25443385  0.39005811  0.06601868     0.15000
H190        H  0.25619112  0.43149092  0.10914206     0.15000
H191        H  0.24006304  0.04645954  0.40843714     0.15000
H192        H  0.24376285  0.08995169  0.45006447     0.15000
H193        H  0.23913039  0.47171004  0.48713247     0.28300
H194        H  0.26049239  0.01447484  0.02916505     0.28300
N195        N  0.26351253  0.47002192  0.29114926    -0.34500
N196        N  0.26204732  0.03409444  0.29532548    -0.55000
N197        N  0.26217901  0.03360719  0.22658717    -0.34500
N198        N  0.26519103  0.47077835  0.22210047    -0.55000
C199        C  0.26985660  0.47455663  0.32157729     0.29100
C200        C  0.27089365  0.44038579  0.28469268     0.29100
C201        C  0.25242611  0.06282396  0.23187774     0.29100
C202        C  0.25622799  0.02749597  0.19636418     0.29100
C203        C  0.26514595  0.03050385  0.32630180     0.37700
C204        C  0.25942241  0.06465377  0.28963960     0.37700
C205        C  0.26012082  0.44079331  0.22751793     0.37700
C206        C  0.25900551  0.47613161  0.19171365     0.37700
C207        C  0.28122723  0.44742258  0.33454192    -0.19800
C208        C  0.28175875  0.42591170  0.31146031    -0.19800
C209        C  0.24059495  0.07547467  0.20463098    -0.19800
C210        C  0.24311232  0.05335201  0.18233969    -0.19800
C211        C  0.26443425  0.05907774  0.34022528    -0.20800
C212        C  0.26106298  0.08052989  0.31718963    -0.20800
C213        C  0.25119182  0.42698906  0.20018535    -0.20800
C214        C  0.24985576  0.44942971  0.17792533    -0.20800
C215        C  0.26576068  0.50253976  0.33794638    -0.16200
C216        C  0.26557416  0.42526585  0.25616646    -0.16200
C217        C  0.26138750  0.50480575  0.17626739    -0.16200
C218        C  0.25411656  0.07880594  0.26036503    -0.16200
H219        H  0.28876037  0.44352749  0.35811427     0.16700
H220        H  0.28920324  0.40218314  0.31430206     0.16700
H221        H  0.23073626  0.09824887  0.20110716     0.16700
H222        H  0.23582026  0.05600054  0.15851444     0.16700
H223        H  0.26640135  0.06428094  0.36443303     0.15000
H224        H  0.25983497  0.10512490  0.32055329     0.20200
H225        H  0.24586726  0.40330754  0.19631789     0.15000
H226        H  0.24207044  0.44656822  0.15451025     0.15000
H227        H  0.25183231  0.48512547  0.27626161     0.28300
H228        H  0.27433015  0.01981476  0.24227847     0.28300
C229        C  0.25198022  0.48488257  0.39102508    -0.14300
C230        C  0.26789286  0.50286788  0.37274218    -0.29500
H231        H  0.24475893  0.96739356  0.38750554     0.14700
H232        H  0.28174176  0.51992036  0.38359407     0.15300
C233        C  0.27363147  0.48944946  0.12181823    -0.14300
C234        C  0.25785353  0.50695931  0.14150963    -0.29500
H235        H  0.28871050  0.47162530  0.13132760     0.14700
H236        H  0.23322805  0.99830474  0.13843141     0.15300
C237        C  0.49918384  0.48469566  0.38596307    -0.14300
C238        C  0.48985512  0.50698138  0.36564273    -0.29500
H239        H  0.00794600  0.46686008  0.38612255     0.14700
H240        H  0.47907994  0.02765854  0.38487487     0.15300
C241        C  0.48646199  0.49152173  0.11643429    -0.14300
C242        C  0.50032363  0.51134437  0.13570903    -0.29500
H243        H  0.47415186  0.47341645  0.12675587     0.14700
H244        H  0.02036805  0.03806195  0.13507328     0.15300
C245        C  0.26314529  0.13227041  0.24352736    -0.14300
C246        C  0.24771502  0.11269371  0.26021148    -0.29500
H247        H  0.28019179  0.12324478  0.22865929     0.14700
H248        H  0.23136674  0.12173367  0.27586167     0.15300
C249        C  0.26718597  0.39091766  0.25670259    -0.14300
C250        C  0.24356617  0.37404604  0.24945751    -0.29500
H251        H  0.28777972  0.37948437  0.26479018     0.14700
H252        H  0.22291729  0.38558418  0.24165233     0.15300
C253        C  0.25102426  0.12006077  0.52327209    -0.14300
C254        C  0.26849374  0.10181448  0.50627947    -0.29500
H255        H  0.25293768  0.11331399  0.03698587     0.14700
H256        H  0.28043518  0.11159939  0.48756891     0.15300
C257        C  0.25238536  0.36177047  0.99033294    -0.14300
C258        C  0.27001554  0.37948548  0.00781543    -0.29500
H259        H  0.23608665  0.37246119  0.97435677     0.14700
H260        H  0.25990742  0.36488087  0.52768318     0.15300
C261        C  0.23928851  0.22685611  0.38352677    -0.14300
C262        C  0.24250622  0.25238144  0.36708623    -0.29500
H263        H  0.24039224  0.20435177  0.37283785     0.14700
H264        H  0.24429669  0.27446166  0.37846020     0.15300
C265        C  0.26600263  0.25734266  0.11734795    -0.14300
C266        C  0.24131084  0.25739461  0.13343443    -0.29500
H267        H  0.28758430  0.26026276  0.12865374     0.14700
H268        H  0.21955859  0.25716882  0.12189128     0.15300
C269        C  0.49862261  0.13638430  0.23892333    -0.14300
C270        C  0.98250637  0.12288043  0.26021220    -0.29500
H271        H  0.02004463  0.12898405  0.23409271     0.14700
H272        H  0.47175711  0.13098372  0.27703174     0.15300
C273        C  0.98781242  0.38205663  0.23457464    -0.14300
C274        C  0.00075562  0.39982513  0.25611853    -0.29500
H275        H  0.47761807  0.38843409  0.21590745     0.14700
H276        H  0.01254057  0.38902432  0.27570511     0.15300
C277        C  0.36369123  0.25728631  0.25822955    -0.14300
C278        C  0.38011279  0.25801667  0.23315065    -0.29500
H279        H  0.37427855  0.25837076  0.28097755     0.14700
H280        H  0.36927014  0.25991519  0.21051106     0.15300
C281        C  0.11357536  0.27002480  0.25551300    -0.14300
C282        C  0.13229131  0.24555691  0.25314471    -0.29500
H283        H  0.12218902  0.29283910  0.25855994     0.14700
H284        H  0.12366902  0.22258041  0.25241163     0.15300
C285        C  0.49005129  0.11838239  0.48980162    -0.14300
C286        C  0.50304682  0.10008471  0.51168336    -0.29500
H287        H  0.47753853  0.10794073  0.47103374     0.14700
H288        H  0.47188807  0.10955012  0.00040158     0.15300
C289        C  0.00510566  0.37068905  0.98869193    -0.14300
C290        C  0.48554519  0.37600097  0.00479822    -0.29500
H291        H  0.00177650  0.37251146  0.47795579     0.14700
H292        H  0.47234845  0.36553686  0.02211380     0.15300
C293        C  0.37527690  0.24811245  0.99827075    -0.14300
C294        C  0.36868555  0.23077885  0.48516804    -0.29500
H295        H  0.38440502  0.26671697  0.01177141     0.14700
H296        H  0.35970787  0.21333535  0.47005038     0.15300
C297        C  0.12481406  0.25254366  0.98543520    -0.14300
C298        C  0.12018033  0.22360629  0.48957493    -0.29500
H299        H  0.13314734  0.26610609  0.96683862     0.14700
H300        H  0.11190246  0.20535243  0.50363959     0.15300
C301        C  0.48393638  0.23769503  0.37031975    -0.14300
C302        C  0.99131077  0.26600060  0.35703050    -0.29500
H303        H  0.47010276  0.22127457  0.35840105     0.14700
H304        H  0.00518573  0.28229339  0.36909603     0.15300
C305        C  0.49778625  0.25891647  0.12026762    -0.14300
C306        C  0.00421611  0.26913469  0.10731313    -0.29500
H307        H  0.03638161  0.23542145  0.12155133     0.14700
H308        H  0.53246305  0.22549440  0.11666197     0.15300
O309        O  0.49346200  0.20997330  0.92052495    -0.76400
C310        C  0.51621720  0.14975971  0.99820108     0.84700
O311        O  0.41257228  0.25543615  0.50244056    -0.77500
O312        O  0.01600160  0.22342360  0.55557699    -0.79000
O313        O  0.07609940  0.26683384  0.96890212    -0.78800
O314        O  0.01810351  0.26572854  0.92111950    -0.77400
Zn315      Zn  0.48584487  0.20538460  0.96552356     1.55700
O316        O  0.05812432  0.22071341  0.49500613    -0.78800
Cd317      Cd  0.03108231  0.27567890  0.96487163     1.59700
Cd318      Cd  0.45636418  0.26665095  0.51022854     1.59600
O319        O  0.02389707  0.32214363  0.97304928    -0.78800
O320        O  0.50868448  0.23576379  0.98782752    -1.89300
Cd321      Cd  0.01556786  0.21369349  0.50978815     1.59900
O322        O  0.46120274  0.31320361  0.50061715    -0.78700
O323        O  0.00636609  0.16778123  0.50404167    -0.77400
C324        C  0.42612536  0.23133016  0.98581856     0.85200
C325        C  0.50580623  0.23064327  0.90516943     0.84800
O326        O  0.49541736  0.16163566  0.98093003    -0.76300
C327        C  0.06863694  0.24113727  0.47783882     0.85600
O328        O  0.44195894  0.21282144  0.97026257    -0.76400
C329        C  0.98393173  0.32902486  0.49282014     0.85700
C330        C  0.00017547  0.24113302  0.57196763     0.86100
O331        O  0.46573062  0.26076818  0.55589411    -0.78900
O332        O  0.02128044  0.33546400  0.75809791    -0.76400
C333        C  0.01154267  0.26225144  0.82463752     0.84700
O334        O  0.07691113  0.24364845  0.72421171    -0.77500
O335        O  0.48490105  0.17965387  0.75838768    -0.79000
O336        O  0.43542324  0.26365071  0.71512860    -0.78800
O337        O  0.48339456  0.32028461  0.71415967    -0.77400
Zn338      Zn  0.03151787  0.29037770  0.76536196     1.55700
O339        O  0.43563509  0.23827676  0.75953658    -0.78800
Cd340      Cd  0.47948398  0.27325327  0.70964924     1.59700
Cd341      Cd  0.03188910  0.23726947  0.71462200     1.59600
O342        O  0.48936284  0.25936402  0.66659366    -0.78800
O343        O  0.00627642  0.26389987  0.74098329    -1.89300
Cd344      Cd  0.48033440  0.22649624  0.76529747     1.59900
O345        O  0.02066403  0.24651642  0.66885488    -0.78700
O346        O  0.49366315  0.23415063  0.80913433    -0.77400
C347        C  0.08961629  0.26346832  0.74115246     0.85200
C348        C  0.00194707  0.34998149  0.74108344     0.84800
O349        O  0.02656817  0.28102094  0.80971185    -0.76300
C350        C  0.42183998  0.25120022  0.73674014     0.85600
O351        O  0.07487375  0.28296671  0.75672096    -0.76400
C352        C  0.50717221  0.23930462  0.65555419     0.85700
C353        C  0.50423054  0.16343040  0.74453670     0.86100
O354        O  0.02463539  0.19131550  0.72199688    -0.78900
O355        O  0.24729839  0.31135824  0.51250751    -0.76400
C356        C  0.22874918  0.24882360  0.58225234     0.84700
O357        O  0.33057596  0.22337654  0.98308257    -0.77500
O358        O  0.22683697  0.16818931  0.53085095    -0.79000
O359        O  0.18770402  0.25559061  0.98222004    -0.78800
O360        O  0.23624208  0.31233415  0.97613519    -0.77400
Zn361      Zn  0.25796165  0.26738029  0.52390820     1.55700
O362        O  0.16762984  0.21186972  0.51056365    -0.78800
Cd363      Cd  0.23151504  0.26510462  0.97281722     1.59700
Cd364      Cd  0.28615951  0.21211625  0.97845757     1.59600
O365        O  0.23984045  0.25205163  0.92855658    -0.78800
O366        O  0.23519827  0.23860426  0.50024121    -1.89300
Cd367      Cd  0.21068499  0.21299871  0.52657792     1.59900
O368        O  0.27372259  0.21329831  0.93253318    -0.78700
O369        O  0.21017809  0.23129405  0.56946873    -0.77400
C370        C  0.31795462  0.24374837  0.50204029     0.85200
C371        C  0.22880572  0.32488529  0.49383225     0.84800
O372        O  0.24862430  0.26215162  0.56764419    -0.76300
C373        C  0.17641773  0.23892840  0.00263773     0.85600
O374        O  0.30213298  0.26123439  0.51873846    -0.76400
C375        C  0.25618959  0.23110752  0.91668990     0.85700
C376        C  0.26619634  0.15580930  0.01449265     0.86100
O377        O  0.28221092  0.16745672  0.99422195    -0.78900
O378        O  0.27149180  0.32060649  0.76282234    -0.76400
C379        C  0.25340835  0.24984815  0.83192486     0.84700
O380        O  0.32838711  0.23586646  0.73343879    -0.77500
O381        O  0.24891001  0.17272012  0.76296649    -0.79000
O382        O  0.18423714  0.26394788  0.73305580    -0.78800
O383        O  0.23297117  0.31997155  0.72960416    -0.77400
Zn384      Zn  0.27924649  0.27592409  0.77487106     1.55700
O385        O  0.18879479  0.22157111  0.76183188    -0.78800
Cd386      Cd  0.22743785  0.27360703  0.72398161     1.59700
Cd387      Cd  0.28518284  0.22557125  0.72263989     1.59600
O388        O  0.23373733  0.26493064  0.67871868    -0.78800
O389        O  0.25686008  0.24832093  0.74894384    -1.89300
Cd390      Cd  0.23450796  0.21767746  0.77220547     1.59900
O391        O  0.27665167  0.23765593  0.67794108    -0.78700
O392        O  0.24150863  0.22722778  0.81827800    -0.77400
C393        C  0.33966835  0.25149910  0.75524059     0.85200
C394        C  0.25214796  0.33450092  0.74528468     0.84800
O395        O  0.26681028  0.27054895  0.81783358    -0.76300
C396        C  0.17283922  0.24187353  0.74716537     0.85600
O397        O  0.32363323  0.26659467  0.77381778    -0.76400
C398        C  0.25483394  0.25189392  0.66450046     0.85700
C399        C  0.26744272  0.16137041  0.74421566     0.86100
O400        O  0.28228447  0.17833139  0.72701212    -0.78900
N401        N  0.49367607  0.45376257  0.96816923    -0.34500
N402        N  0.49832312  0.01891649  0.97458858    -0.55000
N403        N  0.49628817  0.02086201  0.54500026    -0.34500
N404        N  0.47881192  0.45630871  0.53423861    -0.55000
C405        C  0.48932799  0.45821498  0.93736626     0.29100
C406        C  0.48433240  0.42536967  0.97474883     0.29100
C407        C  0.49180959  0.05104187  0.53803101     0.29100
C408        C  0.48653719  0.01643793  0.57383364     0.29100
C409        C  0.50489705  0.01312438  0.94494697     0.37700
C410        C  0.50410116  0.04869479  0.97974453     0.37700
C411        C  0.47696765  0.42592382  0.52848526     0.37700
C412        C  0.48400900  0.45908959  0.56501034     0.37700
C413        C  0.47716706  0.43240287  0.92436864    -0.19800
C414        C  0.47367358  0.41189129  0.94787924    -0.19800
C415        C  0.47891315  0.06590186  0.56260285    -0.19800
C416        C  0.47538215  0.04406696  0.58499206    -0.19800
C417        C  0.51532752  0.03918699  0.93141698    -0.20800
C418        C  0.51437736  0.06182793  0.95322132    -0.20800
C419        C  0.48096456  0.40941531  0.55570279    -0.20800
C420        C  0.48546429  0.43034248  0.57873256    -0.20800
C421        C  0.49641942  0.48477471  0.92060722    -0.16200
C422        C  0.48704139  0.41035107  0.00383643    -0.16200
C423        C  0.48529318  0.48737580  0.58101360    -0.16200
C424        C  0.49693567  0.06505676  0.00669166    -0.16200
H425        H  0.47088392  0.42885411  0.90053603     0.16700
H426        H  0.46433056  0.38946915  0.94534462     0.16700
H427        H  0.47243361  0.08997605  0.56416221     0.16700
H428        H  0.46517205  0.04804624  0.60672133     0.16700
H429        H  0.52263953  0.04178311  0.90822722     0.15000
H430        H  0.52030010  0.08537486  0.94966591     0.15000
H431        H  0.48071729  0.38477938  0.55877472     0.15000
H432        H  0.48927229  0.42485790  0.60281232     0.15000
H433        H  0.50529307  0.46773365  0.98335362     0.28300
H434        H  0.50806439  0.00495523  0.53195049     0.28300
N435        N  0.01116664  0.47953652  0.79345921    -0.34500
N436        N  0.99268479  0.04683618  0.78963445    -0.55000
N437        N  0.99717045  0.04628621  0.72163337    -0.34500
N438        N  0.00691210  0.47946656  0.72438540    -0.55000
C439        C  0.00281024  0.48391106  0.82290680     0.29100
C440        C  0.00777743  0.44953522  0.78675577     0.29100
C441        C  0.99008109  0.07623642  0.72689852     0.29100
C442        C  0.99183255  0.04102893  0.69119083     0.29100
C443        C  0.99571628  0.04266428  0.82049531     0.37700
C444        C  0.99693175  0.07693598  0.78430078     0.37700
C445        C  0.01732527  0.45055951  0.73043792     0.37700
C446        C  0.01084009  0.48456519  0.69406429     0.37700
C447        C  0.99409151  0.45628386  0.83478508    -0.19800
C448        C  0.99752811  0.43458217  0.81222381    -0.19800
C449        C  0.98015537  0.09008801  0.69953393    -0.19800
C450        C  0.98149591  0.06802109  0.67708385    -0.19800
C451        C  0.00178689  0.07027151  0.83467281    -0.20800
C452        C  0.00269358  0.09186263  0.81185107    -0.20800
C453        C  0.02801572  0.43732413  0.70387338    -0.20800
C454        C  0.02383896  0.45881589  0.68086055    -0.20800
C455        C  0.00294523  0.51224593  0.83909318    -0.16200
C456        C  0.01462968  0.43490372  0.75874391    -0.16200
C457        C  0.00210798  0.51200699  0.67816402    -0.16200
C458        C  0.99348730  0.09183148  0.75537657    -0.16200
H459        H  0.98540120  0.45213156  0.85704614     0.16700
H460        H  0.99243880  0.41058110  0.81418691     0.16700
H461        H  0.97259855  0.11370130  0.69597276     0.16700
H462        H  0.97526341  0.07154180  0.65315910     0.16700
H463        H  0.00491893  0.07471514  0.85890963     0.15000
H464        H  0.00676327  0.11595839  0.81529972     0.15000
H465        H  0.03760524  0.41441874  0.70124097     0.15000
H466        H  0.02987924  0.45583200  0.65720882     0.15000
H467        H  0.02109412  0.49527740  0.77943227     0.28300
H468        H  0.00778215  0.03133380  0.73731888     0.28300
N469        N  0.26442719  0.45895074  0.97267532    -0.34500
N470        N  0.25218272  0.45664328  0.54089183    -0.55000
N471        N  0.26560602  0.02453164  0.54446712    -0.34500
N472        N  0.27526812  0.02281836  0.97481132    -0.55000
C473        C  0.27114711  0.42897145  0.97858172     0.29100
C474        C  0.26922085  0.46386680  0.94251694     0.29100
C475        C  0.27335809  0.01979044  0.57458916     0.29100
C476        C  0.27366672  0.05311744  0.53698205     0.29100
C477        C  0.24542326  0.42683571  0.53671344     0.37700
C478        C  0.25094921  0.46228609  0.57151808     0.37700
C479        C  0.26654689  0.01767308  0.94518562     0.37700
C480        C  0.27341644  0.05357136  0.97880818     0.37700
C481        C  0.28054546  0.41482316  0.95193035    -0.19800
C482        C  0.27912435  0.43679502  0.92917700    -0.19800
C483        C  0.28621628  0.04595012  0.58633227    -0.19800
C484        C  0.28647291  0.06689312  0.56261858    -0.19800
C485        C  0.23982816  0.41362328  0.56487666    -0.20800
C486        C  0.24344849  0.43594103  0.58678727    -0.20800
C487        C  0.25900255  0.04515742  0.93051196    -0.20800
C488        C  0.26368770  0.06791650  0.95163118    -0.20800
C489        C  0.24631507  0.41055100  0.50841040    -0.16200
C490        C  0.26370238  0.49182949  0.92647844    -0.16200
C491        C  0.26766520  0.06784094  0.50826295    -0.16200
C492        C  0.25836188  0.49024527  0.58617302    -0.16200
H493        H  0.28775790  0.39109992  0.94906939     0.16700
H494        H  0.28536436  0.43335334  0.90568690     0.16700
H495        H  0.29421006  0.04987843  0.60964858     0.16700
H496        H  0.29484291  0.08982939  0.56420229     0.16700
H497        H  0.23399645  0.39018980  0.56933036     0.15000
H498        H  0.24068573  0.43306726  0.61115788     0.15000
H499        H  0.25025542  0.04848256  0.90731281     0.15000
H500        H  0.25972270  0.09224974  0.94758235     0.15000
H501        H  0.25405954  0.47422136  0.98749580     0.28300
H502        H  0.25260619  0.01064832  0.53050191     0.28300
N503        N  0.26818082  0.46551529  0.79099685    -0.34500
N504        N  0.26814418  0.02977776  0.79396208    -0.55000
N505        N  0.26636134  0.02668272  0.72571082    -0.34500
N506        N  0.26009753  0.46453841  0.72242129    -0.55000
C507        C  0.26546856  0.47031069  0.82167691     0.29100
C508        C  0.26496569  0.43521651  0.78574698     0.29100
C509        C  0.26156882  0.05735581  0.72947664     0.29100
C510        C  0.26094756  0.02025202  0.69550467     0.29100
C511        C  0.27038248  0.02708293  0.82504323     0.37700
C512        C  0.26633307  0.06022092  0.78746076     0.37700
C513        C  0.26848970  0.43491636  0.72814226     0.37700
C514        C  0.26163043  0.46898963  0.69162340     0.37700
C515        C  0.26089753  0.44252242  0.83595979    -0.19800
C516        C  0.26030667  0.42054110  0.81339669    -0.19800
C517        C  0.25412583  0.07057234  0.70105873    -0.19800
C518        C  0.25396659  0.04735208  0.67976469    -0.19800
C519        C  0.27038131  0.05600344  0.83817292    -0.20800
C520        C  0.26785462  0.07682336  0.81458496    -0.20800
C521        C  0.27552897  0.42052878  0.70084354    -0.20800
C522        C  0.27098702  0.44194011  0.67780847    -0.20800
C523        C  0.26873245  0.49890044  0.83693906    -0.16200
C524        C  0.26794639  0.41995629  0.75717963    -0.16200
C525        C  0.25181702  0.49630308  0.67586339    -0.16200
C526        C  0.26240875  0.07383032  0.75778541    -0.16200
H527        H  0.25810287  0.43810825  0.86000409     0.16700
H528        H  0.25711286  0.39633277  0.81711695     0.16700
H529        H  0.24838039  0.09439527  0.69604710     0.16700
H530        H  0.24824489  0.05009708  0.65555225     0.16700
H531        H  0.27221188  0.06183375  0.86221260     0.15000
H532        H  0.26728475  0.10151206  0.81728397     0.20200
H533        H  0.28290523  0.39689624  0.69769129     0.15000
H534        H  0.27412280  0.43771799  0.65372454     0.15000
H535        H  0.27517734  0.48105898  0.77502273     0.28300
H536        H  0.27381778  0.01127343  0.74267715     0.28300
C537        C  0.25696633  0.49027582  0.89246148    -0.14300
C538        C  0.27552726  0.50000590  0.87110609    -0.29500
H539        H  0.24685510  0.96861184  0.88822191     0.14700
H540        H  0.29571138  0.51094218  0.87886960     0.15300
C541        C  0.26545942  0.48979413  0.62029581    -0.14300
C542        C  0.24490332  0.49553214  0.64161385    -0.29500
H543        H  0.28841632  0.48533462  0.62777375     0.14700
H544        H  0.23137007  0.98258096  0.64041983     0.15300
C545        C  0.49988073  0.48206932  0.88623815    -0.14300
C546        C  0.48498451  0.50055086  0.86539576    -0.29500
H547        H  0.02515614  0.47548991  0.88714291     0.14700
H548        H  0.47355917  0.02103913  0.88485683     0.15300
C549        C  0.48241565  0.48675037  0.61564176    -0.14300
C550        C  0.49650827  0.50551857  0.63573346    -0.29500
H551        H  0.46899868  0.46910850  0.62520266     0.14700
H552        H  0.01251427  0.03103633  0.63130613     0.15300
C553        C  0.27252004  0.12763641  0.74232837    -0.14300
C554        C  0.25590729  0.10775845  0.75720275    -0.29500
H555        H  0.29064373  0.11888139  0.72868774     0.14700
H556        H  0.23828735  0.11659432  0.77146579     0.15300
C557        C  0.27061939  0.38580997  0.75831585    -0.14300
C558        C  0.25138733  0.36828169  0.74277174    -0.29500
H559        H  0.28703286  0.37520399  0.77422115     0.14700
H560        H  0.23413856  0.37919662  0.72803354     0.15300
C561        C  0.26758108  0.12239984  0.02014449    -0.14300
C562        C  0.28447679  0.10289847  0.00388971    -0.29500
H563        H  0.23773600  0.11000906  0.54078240     0.14700
H564        H  0.29791890  0.11162564  0.98580388     0.15300
C565        C  0.22788116  0.35900650  0.49204357    -0.14300
C566        C  0.24565523  0.37619283  0.51016701    -0.29500
H567        H  0.21275544  0.37022559  0.47524720     0.14700
H568        H  0.28538865  0.36885579  0.02476543     0.15300
C569        C  0.25525234  0.22768072  0.88332807    -0.14300
C570        C  0.25194236  0.25242683  0.86519734    -0.29500
H571        H  0.25970371  0.20513228  0.87355140     0.14700
H572        H  0.25070760  0.27527538  0.87515094     0.15300
C573        C  0.22829494  0.25246095  0.61528082    -0.14300
C574        C  0.25403605  0.25283148  0.63126168    -0.29500
H575        H  0.20736495  0.25114851  0.62677315     0.14700
H576        H  0.27498024  0.25076273  0.61967584     0.15300
C577        C  0.50320390  0.12975385  0.74501464    -0.14300
C578        C  0.99143061  0.12606187  0.75558842    -0.29500
H579        H  0.02381712  0.13195482  0.72271696     0.14700
H580        H  0.46685472  0.12693408  0.77405610     0.15300
C581        C  0.00041350  0.38376111  0.74080130    -0.14300
C582        C  0.01768320  0.40082907  0.75917148    -0.29500
H583        H  0.47877539  0.37960174  0.71365167     0.14700
H584        H  0.03261393  0.38988183  0.77632992     0.15300
C585        C  0.37220680  0.25212065  0.75895835    -0.14300
C586        C  0.38926208  0.25108753  0.73433185    -0.29500
H587        H  0.38217711  0.25469631  0.78183432     0.14700
H588        H  0.37890437  0.25130188  0.71141322     0.15300
C589        C  0.12224428  0.26477497  0.74248937    -0.14300
C590        C  0.14017297  0.23961910  0.74606024    -0.29500
H591        H  0.13176107  0.28734434  0.74243596     0.14700
H592        H  0.13069896  0.21726757  0.74906134     0.15300
C593        C  0.51797727  0.11636303  0.00404686    -0.14300
C594        C  0.49393493  0.09906004  0.00395636    -0.29500
H595        H  0.53971799  0.10561053  0.00902178     0.14700
H596        H  0.51370284  0.11035372  0.53171884     0.15300
C597        C  0.98595094  0.36275361  0.49317446    -0.14300
C598        C  0.46421239  0.37932711  0.49881660    -0.29500
H599        H  0.02056363  0.38169358  0.97395151     0.14700
H600        H  0.44937813  0.37022308  0.51543945     0.15300
C601        C  0.35037548  0.24767840  0.50267511    -0.14300
C602        C  0.39358434  0.22871064  0.98357231    -0.29500
H603        H  0.35935043  0.26505998  0.51787018     0.14700
H604        H  0.38456883  0.21018839  0.96987796     0.15300
C605        C  0.10093504  0.24252933  0.47413043    -0.14300
C606        C  0.14393798  0.23733318  0.00472557    -0.29500
H607        H  0.10907238  0.26109539  0.46039180     0.14700
H608        H  0.13556073  0.22363363  0.02319769     0.15300
C609        C  0.50388427  0.22954188  0.87173359    -0.14300
C610        C  0.01493066  0.26221091  0.85804501    -0.29500
H611        H  0.49097438  0.21165692  0.86095023     0.14700
H612        H  0.02923592  0.27917208  0.86842880     0.15300
C613        C  0.50648502  0.23436445  0.62250285    -0.14300
C614        C  0.00780863  0.24229924  0.60487160    -0.29500
H615        H  0.98165244  0.28225903  0.61235574     0.14700
H616        H  0.46781159  0.26223013  0.61432540     0.15300
O617        O  0.47084722  0.72369113  0.41931008    -0.76400
C618        C  0.49114920  0.64939134  0.48372719     0.84700
O619        O  0.43597724  0.75335597  0.01393677    -0.77500
O620        O  0.02944976  0.74336168  0.06870583    -0.79000
O621        O  0.06297238  0.75294723  0.48228588    -0.78800
O622        O  0.01062537  0.76083640  0.42661938    -0.77400
Zn623      Zn  0.46500033  0.71176928  0.46273775     1.55700
O624        O  0.07810454  0.73361283  0.01298059    -0.78800
Cd625      Cd  0.01891939  0.76558938  0.47252376     1.59700
Cd626      Cd  0.48094379  0.76296962  0.01910300     1.59600
O627        O  0.01231424  0.81178124  0.48155949    -0.78800
O628        O  0.49066185  0.73560276  0.48954900    -1.89300
Cd629      Cd  0.03470127  0.72740086  0.02514779     1.59900
O630        O  0.48636451  0.80979336  0.01189775    -0.78700
O631        O  0.02779147  0.68089424  0.02607964    -0.77400
C632        C  0.40759456  0.73528409  0.49135791     0.85200
C633        C  0.48854576  0.74135995  0.40646539     0.84800
O634        O  0.47386133  0.66599864  0.46639073    -0.76300
C635        C  0.08917823  0.74730640  0.99039374     0.85600
O636        O  0.42194330  0.71886911  0.47240588    -0.76400
C637        C  0.00803685  0.83658987  0.99064770     0.85700
C638        C  0.01028670  0.76160925  0.08031003     0.86100
O639        O  0.49594699  0.75446979  0.06308032    -0.78900
O640        O  0.02106403  0.83516878  0.25924461    -0.76400
C641        C  0.00754771  0.76633876  0.32950229     0.84700
O642        O  0.08449934  0.74020028  0.24633272    -0.77500
O643        O  0.49442286  0.68580668  0.25662736    -0.79000
O644        O  0.43892725  0.77590330  0.21971809    -0.78800
O645        O  0.48729850  0.83192839  0.22489308    -0.77400
Zn646      Zn  0.03298848  0.79136303  0.27173029     1.55700
O647        O  0.44003383  0.74036260  0.25654073    -0.78800
Cd648      Cd  0.48290728  0.78613706  0.21611113     1.59700
Cd649      Cd  0.04209213  0.73187360  0.23025264     1.59600
O650        O  0.49228847  0.77991264  0.17163511    -0.78800
O651        O  0.01197297  0.76114220  0.24746363    -1.89300
Cd652      Cd  0.48501270  0.73192187  0.26517973     1.59900
O653        O  0.04151735  0.73669592  0.18362250    -0.78700
O654        O  0.49236209  0.74040752  0.31034639    -0.77400
C655        C  0.09463700  0.76391452  0.25941575     0.85200
C656        C  0.00396763  0.84702303  0.23813316     0.84800
O657        O  0.02366434  0.78503897  0.31577490    -0.76300
C658        C  0.42583967  0.75794996  0.23737185     0.85600
O659        O  0.07761356  0.78572775  0.26850002    -0.76400
C660        C  0.51030930  0.76208631  0.15811130     0.85700
C661        C  0.51299664  0.67214008  0.23948070     0.86100
O662        O  0.03333253  0.68665611  0.23856690    -0.78900
O663        O  0.26686962  0.81775592  0.01893492    -0.76400
C664        C  0.26189306  0.75402342  0.09043864     0.84700
O665        O  0.31317909  0.72295006  0.49360399    -0.77500
O666        O  0.24570842  0.67363576  0.03522710    -0.79000
O667        O  0.17395774  0.76235028  0.47650198    -0.78800
O668        O  0.22673239  0.81430072  0.48096423    -0.77400
Zn669      Zn  0.28077776  0.77438916  0.02854743     1.55700
O670        O  0.18902414  0.72339551  0.02821814    -0.78800
Cd671      Cd  0.21926147  0.76817003  0.47511646     1.59700
Cd672      Cd  0.26927895  0.71155205  0.48569020     1.59600
O673        O  0.23274175  0.75634149  0.43243462    -0.78800
O674        O  0.25677113  0.74431614  0.00755932    -1.89300
Cd675      Cd  0.23419994  0.71987239  0.03680633     1.59900
O676        O  0.26130826  0.71366501  0.43940492    -0.78700
O677        O  0.24291690  0.73534242  0.08019443    -0.77400
C678        C  0.33983182  0.74816677  0.00820383     0.85200
C679        C  0.24639714  0.83017067  0.00176050     0.84800
O680        O  0.27816228  0.76913565  0.07323022    -0.76300
C681        C  0.15836720  0.74417628  0.49156017     0.85600
O682        O  0.32411350  0.76923286  0.02044234    -0.76400
C683        C  0.24808550  0.73377163  0.42225707     0.85700
C684        C  0.24335948  0.65421654  0.51479125     0.86100
O685        O  0.26301049  0.66639560  0.49879638    -0.78900
O686        O  0.27950005  0.82417868  0.27126482    -0.76400
C687        C  0.26022495  0.75363858  0.33992999     0.84700
O688        O  0.33155132  0.74541820  0.23425076    -0.77500
O689        O  0.25671414  0.67877996  0.27096230    -0.79000
O690        O  0.18822444  0.77048873  0.25189570    -0.78800
O691        O  0.23774439  0.82494724  0.24237178    -0.77400
Zn692      Zn  0.28608304  0.77936875  0.28313560     1.55700
O693        O  0.19545443  0.72377538  0.27200580    -0.78800
Cd694      Cd  0.22995324  0.77921185  0.23711198     1.59700
Cd695      Cd  0.28817897  0.73264519  0.22852038     1.59600
O696        O  0.22940628  0.76984644  0.19125052    -0.78800
O697        O  0.26183707  0.75359314  0.25769522    -1.89300
Cd698      Cd  0.24105574  0.72224157  0.28054311     1.59900
O699        O  0.27212688  0.74307255  0.18542636    -0.78700
O700        O  0.24800410  0.73156949  0.32582840    -0.77400
C701        C  0.34439945  0.75659295  0.25797165     0.85200
C702        C  0.25894380  0.83866512  0.25576327     0.84800
O703        O  0.27441913  0.77411838  0.32640218    -0.76300
C704        C  0.17825347  0.74588568  0.26268615     0.85600
O705        O  0.32979477  0.76789281  0.28000361    -0.76400
C706        C  0.24846010  0.75649280  0.17463731     0.85700
C707        C  0.27514636  0.66810254  0.25191558     0.86100
O708        O  0.28900902  0.68537555  0.23415330    -0.78900
N709        N  0.49264565  0.95546382  0.47638539    -0.34500
N710        N  0.49586609  0.51914000  0.46612385    -0.55000
N711        N  0.49277504  0.52219505  0.03421153    -0.34500
N712        N  0.49251295  0.95624695  0.04520530    -0.55000
C713        C  0.48916458  0.96172385  0.44580769     0.29100
C714        C  0.48194191  0.92720630  0.48130647     0.29100
C715        C  0.48641312  0.55175209  0.02600445     0.29100
C716        C  0.48567904  0.51884985  0.06413690     0.29100
C717        C  0.50353915  0.51293449  0.43689106     0.37700
C718        C  0.50672177  0.54682755  0.47316385     0.37700
C719        C  0.49541704  0.92551698  0.04075459     0.37700
C720        C  0.49726397  0.96111993  0.07579090     0.37700
C721        C  0.47612529  0.93712667  0.43126336    -0.19800
C722        C  0.47137558  0.91554551  0.45355901    -0.19800
C723        C  0.47537143  0.56748513  0.05104523    -0.19800
C724        C  0.47479264  0.54675597  0.07497677    -0.19800
C725        C  0.51965323  0.53664021  0.42550944    -0.20800
C726        C  0.52144560  0.55823533  0.44838048    -0.20800
C727        C  0.50198852  0.91087543  0.06859222    -0.20800
C728        C  0.50322507  0.93329694  0.09065558    -0.20800
C729        C  0.49858021  0.98845410  0.43054348    -0.16200
C730        C  0.48298881  0.91091376  0.50979176    -0.16200
C731        C  0.49425123  0.99006434  0.09071827    -0.16200
C732        C  0.50134901  0.56304035  0.50064251    -0.16200
H733        H  0.47034402  0.93495438  0.40712889     0.16700
H734        H  0.46131442  0.89365580  0.44964195     0.16700
H735        H  0.46836191  0.59145882  0.05198541     0.16700
H736        H  0.46665373  0.55164497  0.09754875     0.16700
H737        H  0.52917707  0.53826990  0.40315785     0.15000
H738        H  0.53237029  0.57988433  0.44693221     0.15000
H739        H  0.50551811  0.88650120  0.07269456     0.15000
H740        H  0.50788744  0.92935282  0.11489518     0.15000
H741        H  0.50447404  0.96821831  0.49247768     0.28300
H742        H  0.50390012  0.50613390  0.02081938     0.28300
N743        N  0.99981873  0.97741631  0.29032021    -0.34500
N744        N  0.99094933  0.54285460  0.29490928    -0.55000
N745        N  0.99725838  0.54587080  0.22666399    -0.34500
N746        N  0.00156019  0.97989122  0.22086634    -0.55000
C747        C  0.99008491  0.98031375  0.31949469     0.29100
C748        C  0.99754613  0.94762315  0.28212099     0.29100
C749        C  0.98997389  0.57544107  0.23331630     0.29100
C750        C  0.99377123  0.54243232  0.19569560     0.29100
C751        C  0.99385234  0.53722342  0.32558783     0.37700
C752        C  0.99496379  0.57323498  0.29103546     0.37700
C753        C  0.01171350  0.95079795  0.22685023     0.37700
C754        C  0.00930617  0.98674859  0.19178343     0.37700
C755        C  0.98139903  0.95199307  0.32968966    -0.19800
C756        C  0.98633863  0.93139328  0.30635304    -0.19800
C757        C  0.98180192  0.59097160  0.20628536    -0.19800
C758        C  0.98431170  0.57024468  0.18264578    -0.19800
C759        C  0.99962208  0.56421544  0.34109979    -0.20800
C760        C  0.00033822  0.58691337  0.31931495    -0.20800
C761        C  0.02587509  0.93912702  0.20139254    -0.20800
C762        C  0.02441582  0.96186769  0.17932348    -0.20800
C763        C  0.98918411  0.00787359  0.33705239    -0.16200
C764        C  0.00715453  0.93407989  0.25433713    -0.16200
C765        C  0.00273474  0.01524223  0.17649769    -0.16200
C766        C  0.99232036  0.58942584  0.26274216    -0.16200
H767        H  0.97198254  0.94665064  0.35143291     0.16700
H768        H  0.98192221  0.90715225  0.30709114     0.16700
H769        H  0.97493973  0.61490996  0.20374602     0.16700
H770        H  0.97972106  0.57521340  0.15859447     0.16700
H771        H  0.00293279  0.56743586  0.36555658     0.15000
H772        H  0.00425679  0.61086418  0.32387268     0.15000
H773        H  0.03655763  0.91668477  0.19905003     0.15000
H774        H  0.03413251  0.96051403  0.15703351     0.15000
H775        H  0.01033131  0.99389381  0.27770761     0.28300
H776        H  0.00707092  0.53009997  0.24211488     0.28300
N777        N  0.26029561  0.95668408  0.47904400    -0.34500
N778        N  0.26469554  0.96301434  0.04739686    -0.55000
N779        N  0.26805228  0.52529562  0.04096593    -0.34500
N780        N  0.25705805  0.52072520  0.47094276    -0.55000
C781        C  0.26669788  0.92699825  0.48670373     0.29100
C782        C  0.26657881  0.96024680  0.44896309     0.29100
C783        C  0.27449543  0.51941745  0.07126727     0.29100
C784        C  0.27668119  0.55412308  0.03475813     0.29100
C785        C  0.25581893  0.93389643  0.04370136     0.37700
C786        C  0.26146491  0.97025715  0.07742349     0.37700
C787        C  0.25034962  0.51563312  0.44074949     0.37700
C788        C  0.25268627  0.55127961  0.47559599     0.37700
C789        C  0.27747159  0.91165148  0.46130941    -0.19800
C790        C  0.27712240  0.93251547  0.43751644    -0.19800
C791        C  0.28705439  0.54499582  0.08445523    -0.19800
C792        C  0.28852575  0.56675776  0.06153658    -0.19800
C793        C  0.24661118  0.92264161  0.07147628    -0.20800
C794        C  0.25015730  0.94561299  0.09275713    -0.20800
C795        C  0.24140037  0.54293876  0.42645416    -0.20800
C796        C  0.24323017  0.56550744  0.44828856    -0.20800
C797        C  0.25879053  0.91628073  0.01655741    -0.16200
C798        C  0.26181627  0.98758472  0.43141447    -0.16200
C799        C  0.27312654  0.56978689  0.00592809    -0.16200
C800        C  0.27196903  0.99738816  0.09146708    -0.16200
H801        H  0.28467886  0.88777387  0.45990703     0.16700
H802        H  0.28406050  0.92770950  0.41452878     0.16700
H803        H  0.29513272  0.54747313  0.10795071     0.16700
H804        H  0.29767650  0.58924569  0.06430744     0.16700
H805        H  0.23866914  0.89999467  0.07608790     0.15000
H806        H  0.24526316  0.94400003  0.11677179     0.15000
H807        H  0.23334620  0.54613473  0.40301304     0.15000
H808        H  0.23756427  0.58960086  0.44459464     0.15000
H809        H  0.24912859  0.97254874  0.49266332     0.28300
H810        H  0.25621566  0.51150931  0.02583711     0.28300
N811        N  0.26980687  0.96825254  0.29615595    -0.34500
N812        N  0.26498956  0.53579301  0.29187401    -0.55000
N813        N  0.26316272  0.53689584  0.22333560    -0.34500
N814        N  0.27048667  0.96782973  0.22747170    -0.55000
C815        C  0.27305265  0.97338524  0.32692132     0.29100
C816        C  0.27766506  0.93845889  0.29112935     0.29100
C817        C  0.26601722  0.56715044  0.22912205     0.29100
C818        C  0.26509248  0.53274466  0.19253875     0.29100
C819        C  0.26257137  0.53129475  0.32254235     0.37700
C820        C  0.26137123  0.56638614  0.28684552     0.37700
C821        C  0.27626263  0.93763979  0.23299688     0.37700
C822        C  0.27070747  0.97181225  0.19656838     0.37700
C823        C  0.28276885  0.94630770  0.34130511    -0.19800
C824        C  0.28519799  0.92431756  0.31902386    -0.19800
C825        C  0.26952827  0.58244424  0.20150197    -0.19800
C826        C  0.26927117  0.56082617  0.17866205    -0.19800
C827        C  0.25801454  0.55923703  0.33698933    -0.20800
C828        C  0.25722920  0.58131447  0.31457341    -0.20800
C829        C  0.28061200  0.92248703  0.20542940    -0.20800
C830        C  0.27712241  0.94406020  0.18248315    -0.20800
C831        C  0.26921295  0.00201862  0.34236446    -0.16200
C832        C  0.27831171  0.92321320  0.26235056    -0.16200
C833        C  0.26255851  0.99949716  0.18076750    -0.16200
C834        C  0.26310287  0.58170521  0.25813644    -0.16200
H835        H  0.28889593  0.94278212  0.36519840     0.16700
H836        H  0.29271475  0.90076230  0.32303720     0.16700
H837        H  0.27124826  0.60679119  0.19760629     0.16700
H838        H  0.27113876  0.56560121  0.15445358     0.16700
H839        H  0.25594688  0.56362601  0.36118169     0.15000
H840        H  0.25439754  0.60572936  0.31851677     0.20200
H841        H  0.28604841  0.89837441  0.20209818     0.15000
H842        H  0.27907381  0.93966424  0.15823883     0.15000
H843        H  0.26116795  0.98334174  0.27953008     0.28300
H844        H  0.25719801  0.52080310  0.23929315     0.28300
C845        C  0.25876086  0.98514082  0.39682222    -0.14300
C846        C  0.27301664  0.00321914  0.37709948    -0.29500
H847        H  0.23837028  0.46757691  0.38024658     0.14700
H848        H  0.28734785  0.02046663  0.38681858     0.15300
C849        C  0.27785244  0.99806237  0.12579145    -0.14300
C850        C  0.25626592  0.99824981  0.14654650    -0.29500
H851        H  0.30071825  0.99976152  0.13409101     0.14700
H852        H  0.24281907  0.52477046  0.13189208     0.15300
C853        C  0.50284101  0.98686882  0.39618449    -0.14300
C854        C  0.49148161  0.00815622  0.37571076    -0.29500
H855        H  0.01113985  0.96877537  0.38382857     0.14700
H856        H  0.47893114  0.52739755  0.37481550     0.15300
C857        C  0.49186880  0.98985532  0.12551123    -0.14300
C858        C  0.50350322  0.01080924  0.14510210    -0.29500
H859        H  0.48110795  0.97057291  0.13567254     0.14700
H860        H  0.01703037  0.53642351  0.13619031     0.15300
C861        C  0.28020677  0.63466980  0.25010938    -0.14300
C862        C  0.25927305  0.61564504  0.25881205    -0.29500
H863        H  0.30066008  0.62556569  0.24065966     0.14700
H864        H  0.23890263  0.62504190  0.26822521     0.15300
C865        C  0.28135385  0.88917782  0.26335903    -0.14300
C866        C  0.25883945  0.87228431  0.25310529    -0.29500
H867        H  0.30087659  0.87830224  0.27460052     0.14700
H868        H  0.23926662  0.88375896  0.24250221     0.15300
C869        C  0.24343227  0.62040033  0.51866965    -0.14300
C870        C  0.26027448  0.60111980  0.50190983    -0.29500
H871        H  0.24762186  0.61467319  0.03928559     0.14700
H872        H  0.27410818  0.61041375  0.48445316     0.15300
C873        C  0.24295626  0.86406388  0.00065112    -0.14300
C874        C  0.25866452  0.88215313  0.01977292    -0.29500
H875        H  0.22814527  0.87444876  0.98304888     0.14700
H876        H  0.27369290  0.86749501  0.53614856     0.15300
C877        C  0.25125499  0.73112159  0.38943654    -0.14300
C878        C  0.25738627  0.75582073  0.37297073    -0.29500
H879        H  0.25038624  0.70851425  0.37902514     0.14700
H880        H  0.26083423  0.77779743  0.38408649     0.15300
C881        C  0.26590646  0.75777941  0.12327266    -0.14300
C882        C  0.24303920  0.75629985  0.14166076    -0.29500
H883        H  0.28809096  0.76194324  0.13257095     0.14700
H884        H  0.22043152  0.75496611  0.13239422     0.15300
C885        C  0.51388910  0.63814323  0.23756728    -0.14300
C886        C  0.99144938  0.62356310  0.26429781    -0.29500
H887        H  0.02973263  0.62785969  0.23887827     0.14700
H888        H  0.48167959  0.63133534  0.27052650     0.15300
C889        C  0.00028259  0.88084417  0.23523394    -0.14300
C890        C  0.01331650  0.90017935  0.25513684    -0.29500
H891        H  0.48795327  0.89071227  0.22427707     0.14700
H892        H  0.02663140  0.89086797  0.27447515     0.15300
C893        C  0.37702361  0.75618064  0.26025833    -0.14300
C894        C  0.39330274  0.75759655  0.23515823    -0.29500
H895        H  0.38785001  0.75605085  0.28294870     0.14700
H896        H  0.38243959  0.76065336  0.21263858     0.15300
C897        C  0.12697033  0.76690395  0.26314663    -0.14300
C898        C  0.14591919  0.74241977  0.26332422    -0.29500
H899        H  0.13543328  0.78987900  0.26523995     0.14700
H900        H  0.13751176  0.71934884  0.26330196     0.15300
C901        C  0.49017839  0.61570120  0.48103028    -0.14300
C902        C  0.50494641  0.59680510  0.50114892    -0.29500
H903        H  0.47601032  0.60616471  0.46302164     0.14700
H904        H  0.47069914  0.60974253  0.98237798     0.15300
C905        C  0.01050857  0.87022238  0.98947463    -0.14300
C906        C  0.48847417  0.87592693  0.01308438    -0.29500
H907        H  0.01140175  0.87071680  0.48056892     0.14700
H908        H  0.47531273  0.86566558  0.03055663     0.15300
C909        C  0.37242001  0.75080398  0.01000124    -0.14300
C910        C  0.37504252  0.73206804  0.49165926    -0.29500
H911        H  0.38145862  0.77031090  0.02216844     0.14700
H912        H  0.36509381  0.71765141  0.47406618     0.15300
C913        C  0.12166046  0.74748873  0.98751866    -0.14300
C914        C  0.12582190  0.74619453  0.48671097    -0.29500
H915        H  0.13022950  0.76024201  0.96848273     0.14700
H916        H  0.11654664  0.76300056  0.47025288     0.15300
C917        C  0.48785541  0.74289810  0.37311617    -0.14300
C918        C  0.00741226  0.76684152  0.36292663    -0.29500
H919        H  0.47251219  0.72843177  0.36054881     0.14700
H920        H  0.02182289  0.78247038  0.37521718     0.15300
C921        C  0.50859738  0.76223690  0.12483576    -0.14300
C922        C  0.01045693  0.76625205  0.11319830    -0.29500
H923        H  0.04480586  0.73342698  0.12425134     0.14700
H924        H  0.53733774  0.72343693  0.11986447     0.15300
O925        O  0.48335726  0.71264153  0.92632871    -0.76400
C926        C  0.51208340  0.65014391  0.99957178     0.84700
O927        O  0.42064002  0.75371888  0.50969164    -0.77500
O928        O  0.00662427  0.72070906  0.56581144    -0.79000
O929        O  0.07302200  0.76186783  0.97034477    -0.78800
O930        O  0.01174519  0.76255215  0.92527686    -0.77400
Zn931      Zn  0.48080116  0.70720297  0.97154426     1.55700
O932        O  0.05987279  0.71500679  0.51621584    -0.78800
Cd933      Cd  0.02814797  0.77284045  0.96766401     1.59700
Cd934      Cd  0.46569062  0.76296463  0.51592522     1.59600
O935        O  0.02412520  0.82001151  0.97340585    -0.78800
O936        O  0.50600942  0.73619232  0.99249712    -1.89300
Cd937      Cd  0.01491416  0.71089080  0.52123763     1.59900
O938        O  0.47282091  0.81020179  0.50906538    -0.78700
O939        O  0.00602765  0.66564005  0.51239633    -0.77400
C940        C  0.42333018  0.73303991  0.99750973     0.85200
C941        C  0.49462154  0.73302888  0.90986593     0.84800
O942        O  0.49113564  0.66330384  0.98356300    -0.76300
C943        C  0.07509833  0.73254923  0.50010103     0.85600
O944        O  0.43807508  0.71451930  0.98097081    -0.76400
C945        C  0.99237915  0.82737004  0.49519394     0.85700
C946        C  0.99036957  0.74080831  0.57884201     0.86100
O947        O  0.47813978  0.75205859  0.56049220    -0.78900
O948        O  0.00291288  0.83639146  0.76077434    -0.76400
C949        C  0.99506845  0.76307178  0.83000034     0.84700
O950        O  0.06099413  0.74820661  0.72746948    -0.77500
O951        O  0.47754498  0.67968975  0.75681649    -0.79000
O952        O  0.41883094  0.76860492  0.72506098    -0.78800
O953        O  0.46693134  0.82626507  0.72280276    -0.77400
Zn954      Zn  0.01416320  0.79169008  0.77032497     1.55700
O955        O  0.42253901  0.73399369  0.76295793    -0.78800
Cd956      Cd  0.46193791  0.77949875  0.71658068     1.59700
Cd957      Cd  0.01641942  0.73935810  0.71935056     1.59600
O958        O  0.46822132  0.77027472  0.67145118    -0.78800
O959        O  0.99004580  0.76365319  0.74659562    -1.89300
Cd960      Cd  0.46819521  0.72552401  0.76766328     1.59900
O961        O  0.00276583  0.74873667  0.67487772    -0.78700
O962        O  0.48037275  0.73244469  0.81272669    -0.77400
C963        C  0.07337223  0.76714423  0.74565322     0.85200
C964        C  0.98337479  0.84989588  0.74313336     0.84800
O965        O  0.00821687  0.78323132  0.81480669    -0.76300
C966        C  0.40707330  0.75099642  0.74418166     0.85600
O967        O  0.05820792  0.78512106  0.76255731    -0.76400
C968        C  0.48663806  0.75326346  0.65736675     0.85700
C969        C  0.49648190  0.66676555  0.73949845     0.86100
O970        O  0.01313655  0.69260804  0.72519524    -0.78900
O971        O  0.25881056  0.81346577  0.52082892    -0.76400
C972        C  0.23016207  0.74983681  0.58721182     0.84700
O973        O  0.32813069  0.72525289  0.99488101    -0.77500
O974        O  0.22311299  0.67038302  0.52742253    -0.79000
O975        O  0.18402629  0.75413613  0.98731920    -0.78800
O976        O  0.22918919  0.81410543  0.98498477    -0.77400
Zn977      Zn  0.26514038  0.76839561  0.53208995     1.55700
O978        O  0.17000540  0.72498638  0.51094655    -0.78800
Cd979      Cd  0.22718492  0.76655434  0.97961285     1.59700
Cd980      Cd  0.28387515  0.71540374  0.98536818     1.59600
O981        O  0.23660642  0.75516978  0.93518788    -0.78800
O982        O  0.24201239  0.74175502  0.50567635    -1.89300
Cd983      Cd  0.21291465  0.71739537  0.52796847     1.59900
O984        O  0.27586603  0.72220047  0.93882816    -0.78700
O985        O  0.21300183  0.73224872  0.57234977    -0.77400
C986        C  0.32506506  0.74223532  0.51182351     0.85200
C987        C  0.24327371  0.82811788  0.50026233     0.84800
O988        O  0.25134793  0.76347952  0.57488577    -0.76300
C989        C  0.17294631  0.73733919  0.00769714     0.85600
O990        O  0.30949521  0.75943288  0.52911072    -0.76400
C991        C  0.25648349  0.73806005  0.92310073     0.85700
C992        C  0.26200372  0.65736735  0.01788581     0.86100
O993        O  0.27734867  0.66941577  0.99716614    -0.78900
O994        O  0.25808056  0.81701409  0.77746200    -0.76400
C995        C  0.23492244  0.74021503  0.83846534     0.84700
O996        O  0.31410178  0.73295784  0.74248232    -0.77500
O997        O  0.22988325  0.67221659  0.76340560    -0.79000
O998        O  0.16955579  0.76740053  0.73674219    -0.78800
O999        O  0.22182722  0.82036215  0.74134237    -0.77400
Zn1000     Zn  0.26491046  0.77098099  0.78535730     1.55700
O1001       O  0.17136091  0.72259407  0.76154107    -0.78800
Cd1002     Cd  0.21428151  0.77524302  0.73074327     1.59700
Cd1003     Cd  0.27073906  0.72562143  0.72965817     1.59600
O1004       O  0.22347552  0.76987716  0.68494829    -0.78800
O1005       O  0.24170434  0.74744194  0.75583884    -1.89300
Cd1006     Cd  0.21609824  0.71663044  0.77487365     1.59900
O1007       O  0.26580320  0.74151145  0.68601872    -0.78700
O1008       O  0.21925420  0.72248928  0.82186348    -0.77400
C1009       C  0.32555815  0.74750392  0.76490869     0.85200
C1010       C  0.24044725  0.83285082  0.75955781     0.84800
O1011       O  0.25249092  0.75929203  0.82730506    -0.76300
C1012       C  0.15670838  0.74464139  0.74817482     0.85600
O1013       O  0.30956155  0.76192298  0.78400168    -0.76400
C1014       C  0.24561860  0.75739927  0.67181016     0.85700
C1015       C  0.24888755  0.66153083  0.74480506     0.86100
O1016       O  0.26524312  0.67886352  0.72969039    -0.78900
N1017       N  0.49721209  0.95370491  0.97694639    -0.34500
N1018       N  0.49317478  0.51911249  0.96509867    -0.55000
N1019       N  0.49532988  0.51887914  0.53536700    -0.34500
N1020       N  0.48632672  0.95584394  0.54392187    -0.55000
C1021       C  0.49240588  0.95850375  0.94626394     0.29100
C1022       C  0.48753171  0.92544744  0.98344388     0.29100
C1023       C  0.49255974  0.54910807  0.52819697     0.29100
C1024       C  0.48609141  0.51553808  0.56456957     0.29100
C1025       C  0.50049386  0.51317653  0.93567262     0.37700
C1026       C  0.49846839  0.54903501  0.97009771     0.37700
C1027       C  0.48785933  0.92520022  0.53869440     0.37700
C1028       C  0.49030373  0.95960820  0.57471880     0.37700
C1029       C  0.47967035  0.93300113  0.93323150    -0.19800
C1030       C  0.47621177  0.91237580  0.95663645    -0.19800
C1031       C  0.48149016  0.56509831  0.55306513    -0.19800
C1032       C  0.47724932  0.54393454  0.57582297    -0.19800
C1033       C  0.51077140  0.53932182  0.92215642    -0.20800
C1034       C  0.50905393  0.56214858  0.94373665    -0.20800
C1035       C  0.49291947  0.90953140  0.56623754    -0.20800
C1036       C  0.49448834  0.93123202  0.58895575    -0.20800
C1037       C  0.49960348  0.98509640  0.92964550    -0.16200
C1038       C  0.49070889  0.91015040  0.01233639    -0.16200
C1039       C  0.48801067  0.98813279  0.59031601    -0.16200
C1040       C  0.49195991  0.56542186  0.99718904    -0.16200
H1041       H  0.47310248  0.92967839  0.90943344     0.16700
H1042       H  0.46654309  0.89011726  0.95403819     0.16700
H1043       H  0.47661439  0.58952745  0.55458342     0.16700
H1044       H  0.46779590  0.54888996  0.59773436     0.16700
H1045       H  0.51886667  0.54169800  0.89926785     0.15000
H1046       H  0.51511670  0.58571513  0.94044228     0.15000
H1047       H  0.49512719  0.88495008  0.56971020     0.15000
H1048       H  0.49805681  0.92647236  0.61320006     0.15000
H1049       H  0.50930890  0.96731445  0.99206610     0.28300
H1050       H  0.50555649  0.50206867  0.52203223     0.28300
N1051       N  0.99583674  0.98116442  0.79054690    -0.34500
N1052       N  0.99942242  0.54451540  0.79259386    -0.55000
N1053       N  0.00061880  0.54506535  0.72436506    -0.34500
N1054       N  0.99471621  0.98035066  0.72174769    -0.55000
C1055       C  0.98780450  0.98671670  0.81989164     0.29100
C1056       C  0.98951859  0.95171108  0.78405927     0.29100
C1057       C  0.99054128  0.57400684  0.73019158     0.29100
C1058       C  0.99456724  0.53939426  0.69414198     0.29100
C1059       C  0.00445978  0.54055495  0.82326786     0.37700
C1060       C  0.00033660  0.57503740  0.78720065     0.37700
C1061       C  0.00152913  0.95052624  0.72837758     0.37700
C1062       C  0.00144917  0.98472301  0.69194862     0.37700
C1063       C  0.97600187  0.96052617  0.83189173    -0.19800
C1064       C  0.97733422  0.93838979  0.80945828    -0.19800
C1065       C  0.97802074  0.58687778  0.70338230    -0.19800
C1066       C  0.98073167  0.56516814  0.68069993    -0.19800
C1067       C  0.00869152  0.56864383  0.83725504    -0.20800
C1068       C  0.00619029  0.59040963  0.81448651    -0.20800
C1069       C  0.01260743  0.93596301  0.70269506    -0.20800
C1070       C  0.01260207  0.95760297  0.67970103    -0.20800
C1071       C  0.99144352  0.01466866  0.83615153    -0.16200
C1072       C  0.99634323  0.93582661  0.75671831    -0.16200
C1073       C  0.99699132  0.01281611  0.67563299    -0.16200
C1074       C  0.99362170  0.58969432  0.75862383    -0.16200
H1075       H  0.96698427  0.95768465  0.85431670     0.16700
H1076       H  0.96999805  0.91511435  0.81156516     0.16700
H1077       H  0.96792340  0.60961310  0.70035485     0.16700
H1078       H  0.97312488  0.56807959  0.65707732     0.16700
H1079       H  0.01285942  0.57316594  0.86136919     0.15000
H1080       H  0.00805010  0.61488012  0.81780213     0.15000
H1081       H  0.02012533  0.91222992  0.70071495     0.15000
H1082       H  0.02043147  0.95385095  0.65678889     0.15000
H1083       H  0.00789296  0.99526546  0.77680845     0.28300
H1084       H  0.01357405  0.53138177  0.73952505     0.28300
N1085       N  0.26138251  0.95902395  0.97932340    -0.34500
N1086       N  0.26374424  0.95922450  0.54731883    -0.55000
N1087       N  0.25564951  0.52287945  0.53925816    -0.34500
N1088       N  0.26957312  0.52454155  0.97217150    -0.55000
C1089       C  0.26511413  0.92910393  0.98753776     0.29100
C1090       C  0.26812445  0.96123812  0.94925091     0.29100
C1091       C  0.26261374  0.51778001  0.56951434     0.29100
C1092       C  0.26270349  0.55206367  0.53262933     0.29100
C1093       C  0.25701860  0.92954194  0.54285112     0.37700
C1094       C  0.25941565  0.96547233  0.57738998     0.37700
C1095       C  0.26252783  0.52042302  0.94189079     0.37700
C1096       C  0.26667633  0.55505501  0.97750846     0.37700
C1097       C  0.27465344  0.91232442  0.96243514    -0.19800
C1098       C  0.27610022  0.93248306  0.93828247    -0.19800
C1099       C  0.27374961  0.54430313  0.58229578    -0.19800
C1100       C  0.27386223  0.56584857  0.55909561    -0.19800
C1101       C  0.24814138  0.91689608  0.57011370    -0.20800
C1102       C  0.24968612  0.93956516  0.59187583    -0.20800
C1103       C  0.25529951  0.54835960  0.92796676    -0.20800
C1104       C  0.25806391  0.57027854  0.95039780    -0.20800
C1105       C  0.26115523  0.91293226  0.51532647    -0.16200
C1106       C  0.26619912  0.98838539  0.93124073    -0.16200
C1107       C  0.25810681  0.56699117  0.50368237    -0.16200
C1108       C  0.26738212  0.99324446  0.59204753    -0.16200
H1109       H  0.28011732  0.88800163  0.96140378     0.16700
H1110       H  0.28272475  0.92657918  0.91541759     0.16700
H1111       H  0.28098178  0.54785607  0.60593599     0.16700
H1112       H  0.28139906  0.58904604  0.56153283     0.16700
H1113       H  0.24150306  0.89362729  0.57406559     0.15000
H1114       H  0.24404423  0.93692717  0.61546501     0.15000
H1115       H  0.24879502  0.55255463  0.90414634     0.15000
H1116       H  0.25396293  0.59469818  0.94709308     0.15000
H1117       H  0.25186710  0.97630942  0.99258957     0.28300
H1118       H  0.24430152  0.50844704  0.52444124     0.28300
N1119       N  0.26608235  0.96352877  0.79780147    -0.34500
N1120       N  0.25753295  0.53025670  0.79068637    -0.55000
N1121       N  0.25256205  0.52987772  0.72186450    -0.34500
N1122       N  0.26314459  0.96012761  0.72979162    -0.55000
C1123       C  0.27360430  0.96975164  0.82760730     0.29100
C1124       C  0.27045358  0.93288647  0.79375558     0.29100
C1125       C  0.24189415  0.55849108  0.72829222     0.29100
C1126       C  0.24459604  0.52371274  0.69212804     0.29100
C1127       C  0.26691427  0.52703481  0.82051225     0.37700
C1128       C  0.25650555  0.56066854  0.78452627     0.37700
C1129       C  0.26328106  0.92969582  0.73632117     0.37700
C1130       C  0.26267285  0.96276232  0.69871698     0.37700
C1131       C  0.28273161  0.94270936  0.84239515    -0.19800
C1132       C  0.28028594  0.91951397  0.82136698    -0.19800
C1133       C  0.22740669  0.57084895  0.70222831    -0.19800
C1134       C  0.22928345  0.54908372  0.67944635    -0.19800
C1135       C  0.27164245  0.55557021  0.83333907    -0.20800
C1136       C  0.26501320  0.57682780  0.81063283    -0.20800
C1137       C  0.26334264  0.91303899  0.70923104    -0.20800
C1138       C  0.26305798  0.93386135  0.68563551    -0.20800
C1139       C  0.27302196  0.99908378  0.84195113    -0.16200
C1140       C  0.26560857  0.91626291  0.76615804    -0.16200
C1141       C  0.26065226  0.99065760  0.68168516    -0.16200
C1142       C  0.24617406  0.57444329  0.75647891    -0.16200
H1143       H  0.29127338  0.93992123  0.86570221     0.16700
H1144       H  0.28599855  0.89559011  0.82592427     0.16700
H1145       H  0.21668502  0.59335601  0.69973015     0.16700
H1146       H  0.22036240  0.55180359  0.65618156     0.16700
H1147       H  0.27862555  0.56068865  0.85672287     0.15000
H1148       H  0.26616268  0.60146270  0.81316503     0.20200
H1149       H  0.26455243  0.88836438  0.70654953     0.15000
H1150       H  0.26380858  0.92813774  0.66164168     0.15000
H1151       H  0.25622978  0.97865760  0.78173474     0.28300
H1152       H  0.26684392  0.51681488  0.73612461     0.28300
C1153       C  0.26243238  0.98526919  0.89683891    -0.14300
C1154       C  0.27790321  0.00119799  0.87640152    -0.29500
H1155       H  0.23637489  0.47995092  0.88505981     0.14700
H1156       H  0.29380382  0.01744340  0.88516507     0.15300
C1157       C  0.27384524  0.99398481  0.62629050    -0.14300
C1158       C  0.25367588  0.98861211  0.64767353    -0.29500
H1159       H  0.29573333  0.00085941  0.63416173     0.14700
H1160       H  0.22231503  0.50135510  0.63367930     0.15300
C1161       C  0.50161618  0.98285976  0.89512147    -0.14300
C1162       C  0.48707837  0.00259563  0.87523518    -0.29500
H1163       H  0.01445120  0.97614237  0.88155777     0.14700
H1164       H  0.47009892  0.51830800  0.87418219     0.15300
C1165       C  0.48437956  0.98725315  0.62476773    -0.14300
C1166       C  0.49749092  0.00649766  0.64504600    -0.29500
H1167       H  0.47156263  0.96892458  0.63397334     0.14700
H1168       H  0.01460484  0.53106825  0.63311733     0.15300
C1169       C  0.25283523  0.62808373  0.74068066    -0.14300
C1170       C  0.23859455  0.60786045  0.75752814    -0.29500
H1171       H  0.26901046  0.61976163  0.72446813     0.14700
H1172       H  0.22367006  0.61598834  0.77503230     0.15300
C1173       C  0.26511478  0.88209333  0.76877034    -0.14300
C1174       C  0.24133416  0.86666768  0.75898940    -0.29500
H1175       H  0.28420503  0.86971082  0.77922396     0.14700
H1176       H  0.22248618  0.87931866  0.74831103     0.15300
C1177       C  0.26195637  0.62359166  0.02207448    -0.14300
C1178       C  0.27714069  0.60373138  0.00446831    -0.29500
H1179       H  0.22813392  0.61096486  0.53463430     0.14700
H1180       H  0.29030254  0.61257799  0.98621306     0.15300
C1181       C  0.24422857  0.86192656  0.49817253    -0.14300
C1182       C  0.26104839  0.87872945  0.51736066    -0.29500
H1183       H  0.23057997  0.87344337  0.48028409     0.14700
H1184       H  0.27221195  0.87179168  0.03841258     0.15300
C1185       C  0.25767346  0.73723373  0.88964900    -0.14300
C1186       C  0.23292357  0.73859210  0.87179353    -0.29500
H1187       H  0.27928260  0.73511467  0.87941300     0.14700
H1188       H  0.21120415  0.73776360  0.88173276     0.15300
C1189       C  0.22554955  0.75377738  0.61993847    -0.14300
C1190       C  0.24820715  0.76047677  0.63887384    -0.29500
H1191       H  0.20438205  0.74772380  0.62906337     0.14700
H1192       H  0.27020937  0.76330167  0.63008025     0.15300
C1193       C  0.49859159  0.63280841  0.73728350    -0.14300
C1194       C  0.98802003  0.62355485  0.75927049    -0.29500
H1195       H  0.01852895  0.63326707  0.72548802     0.14700
H1196       H  0.46491096  0.62431076  0.76813694     0.15300
C1197       C  0.98197959  0.88373220  0.74065217    -0.14300
C1198       C  0.99870310  0.90170717  0.75868571    -0.29500
H1199       H  0.46919968  0.88606386  0.72213039     0.14700
H1200       H  0.01290378  0.89147945  0.77688818     0.15300
C1201       C  0.35820666  0.74812358  0.76819828    -0.14300
C1202       C  0.37452748  0.74962633  0.74306886    -0.29500
H1203       H  0.36872783  0.74916601  0.79097239     0.14700
H1204       H  0.36340260  0.75171069  0.72057452     0.15300
C1205       C  0.10612120  0.76864689  0.74722643    -0.14300
C1206       C  0.12395230  0.74332704  0.74564307    -0.29500
H1207       H  0.11576860  0.79075408  0.75176200     0.14700
H1208       H  0.11421618  0.72089023  0.74419539     0.15300
C1209       C  0.51256072  0.61656495  0.00405660    -0.14300
C1210       C  0.48996803  0.59934767  0.99451906    -0.29500
H1211       H  0.53190309  0.60560087  0.01558946     0.14700
H1212       H  0.51764925  0.60632261  0.52029829     0.15300
C1213       C  0.99403819  0.86126394  0.49405892    -0.14300
C1214       C  0.47802458  0.87698635  0.50989968    -0.29500
H1215       H  0.02477942  0.87983685  0.97259280     0.14700
H1216       H  0.46308771  0.86783110  0.52638849     0.15300
C1217       C  0.35768096  0.74555594  0.51259216    -0.14300
C1218       C  0.39078941  0.73029628  0.99686072    -0.29500
H1219       H  0.36744842  0.76018114  0.53009834     0.14700
H1220       H  0.38164013  0.71109180  0.98428393     0.15300
C1221       C  0.10770346  0.72901408  0.50289575    -0.14300
C1222       C  0.14053604  0.73413624  0.00843966    -0.29500
H1223       H  0.11701688  0.71223230  0.51936818     0.14700
H1224       H  0.13196294  0.72128100  0.02740705     0.15300
C1225       C  0.48914505  0.73207596  0.87670999    -0.14300
C1226       C  0.99856010  0.76372426  0.86339526    -0.29500
H1227       H  0.47745555  0.71282638  0.86689521     0.14700
H1228       H  0.01078899  0.78256933  0.87330813     0.15300
C1229       C  0.48359165  0.75255045  0.62396551    -0.14300
C1230       C  0.99245050  0.74183181  0.61231927    -0.29500
H1231       H  0.95979139  0.77713489  0.61749486     0.14700
H1232       H  0.51400942  0.71529554  0.61832165     0.15300
O1233       O  0.96279908  0.22522791  0.41969615    -0.76400
C1234       C  0.98672823  0.15510746  0.48711422     0.84700
O1235       O  0.93604432  0.26453991  0.00320487    -0.77500
O1236       O  0.53390839  0.22363956  0.05793138    -0.79000
O1237       O  0.55254813  0.26107964  0.47299501    -0.78800
O1238       O  0.50150109  0.25579374  0.41793703    -0.77400
Zn1239     Zn  0.95904520  0.21599165  0.46413190     1.55700
O1240       O  0.58227583  0.22397612  0.00294978    -0.78800
Cd1241     Cd  0.50817994  0.26556917  0.46271642     1.59700
Cd1242     Cd  0.97913641  0.27745411  0.01144302     1.59600
O1243       O  0.49763633  0.31116870  0.46755349    -0.78800
O1244       O  0.98499551  0.24138321  0.48878053    -1.89300
Cd1245     Cd  0.53970917  0.21290294  0.01323817     1.59900
O1246       O  0.98403794  0.32330449  0.00169013    -0.78700
O1247       O  0.53614899  0.16598984  0.01062287    -0.77400
C1248       C  0.90236156  0.24045606  0.49299327     0.85200
C1249       C  0.97684874  0.24542367  0.40567475     0.84800
O1250       O  0.96796750  0.17084116  0.47063854    -0.76300
C1251       C  0.59242122  0.24308843  0.98418308     0.85600
O1252       O  0.91665693  0.22393037  0.47417813    -0.76400
C1253       C  0.50188416  0.32395762  0.98656965     0.85700
C1254       C  0.51418075  0.23950217  0.07139271     0.86100
O1255       O  0.98670759  0.27541529  0.05717334    -0.78900
O1256       O  0.51414204  0.33010430  0.25247390    -0.76400
C1257       C  0.49850703  0.25830633  0.32116570     0.84700
O1258       O  0.56690358  0.23300376  0.22605680    -0.77500
O1259       O  0.97934226  0.18882402  0.25880633    -0.79000
O1260       O  0.92886065  0.27513759  0.21135418    -0.78800
O1261       O  0.97706448  0.33242969  0.21538287    -0.77400
Zn1262     Zn  0.52296570  0.28445547  0.26267790     1.55700
O1263       O  0.92717769  0.24640296  0.25362544    -0.78800
Cd1264     Cd  0.97402759  0.28498598  0.21001618     1.59700
Cd1265     Cd  0.52266902  0.22956074  0.21380489     1.59600
O1266       O  0.99161185  0.27280200  0.16879030    -0.78800
O1267       O  0.49738138  0.25786977  0.23813338    -1.89300
Cd1268     Cd  0.97111219  0.23583216  0.26449421     1.59900
O1269       O  0.51592745  0.24011919  0.16835434    -0.78700
O1270       O  0.97716846  0.24559278  0.30934495    -0.77400
C1271       C  0.58078558  0.25165212  0.24320257     0.85200
C1272       C  0.49474613  0.34413116  0.23492566     0.84800
O1273       O  0.51470508  0.27683283  0.30719421    -0.76300
C1274       C  0.91429565  0.26122132  0.23145408     0.85600
O1275       O  0.56721227  0.27324215  0.25744887    -0.76400
C1276       C  0.01296248  0.25493035  0.16066973     0.85700
C1277       C  0.00078007  0.17409383  0.24657441     0.86100
O1278       O  0.51369799  0.18391190  0.22017951    -0.78900
O1279       O  0.76998609  0.31831949  0.00837988    -0.76400
C1280       C  0.76151517  0.25935711  0.08564838     0.84700
O1281       O  0.80686816  0.23356927  0.48752543    -0.77500
O1282       O  0.74899298  0.17440391  0.03191305    -0.79000
O1283       O  0.66175172  0.25957558  0.48940359    -0.78800
O1284       O  0.70778899  0.31912737  0.47434536    -0.77400
Zn1285     Zn  0.78277311  0.27592122  0.02298332     1.55700
O1286       O  0.69224366  0.22328143  0.02332091    -0.78800
Cd1287     Cd  0.70361219  0.27116679  0.47561594     1.59700
Cd1288     Cd  0.76249896  0.22298180  0.47875338     1.59600
O1289       O  0.70799261  0.25535671  0.43149715    -0.78800
O1290       O  0.75969935  0.24458614  0.00295180    -1.89300
Cd1291     Cd  0.73729418  0.22077996  0.03283863     1.59900
O1292       O  0.75136874  0.22862590  0.43276645    -0.78700
O1293       O  0.74438442  0.23867630  0.07578003    -0.77400
C1294       C  0.84245126  0.24956974  0.00336902     0.85200
C1295       C  0.74964732  0.32948769  0.99020146     0.84800
O1296       O  0.77780626  0.27434266  0.06821637    -0.76300
C1297       C  0.65266796  0.24153327  0.50996744     0.85600
O1298       O  0.82621423  0.27014366  0.01573373    -0.76400
C1299       C  0.72872289  0.24056276  0.41826104     0.85700
C1300       C  0.74368699  0.16377194  0.51119254     0.86100
O1301       O  0.75727287  0.17683372  0.48978356    -0.78900
O1302       O  0.76381191  0.32614964  0.28180312    -0.76400
C1303       C  0.74961527  0.24418629  0.33537401     0.84700
O1304       O  0.81965752  0.24725166  0.23117816    -0.77500
O1305       O  0.73199581  0.18455848  0.25656548    -0.79000
O1306       O  0.67881566  0.28713328  0.24303251    -0.78800
O1307       O  0.73554747  0.33321635  0.23913633    -0.77400
Zn1308     Zn  0.77381058  0.28014092  0.28258648     1.55700
O1309       O  0.67697376  0.24040251  0.26362471    -0.78800
Cd1310     Cd  0.72244491  0.28929144  0.23046009     1.59700
Cd1311     Cd  0.77550787  0.23712698  0.22452164     1.59600
O1312       O  0.72341661  0.28115943  0.18402349    -0.78800
O1313       O  0.74882646  0.25894334  0.25316039    -1.89300
Cd1314     Cd  0.72215761  0.22889733  0.27201185     1.59900
O1315       O  0.76328669  0.24958554  0.18076511    -0.78700
O1316       O  0.73060480  0.22986382  0.31900958    -0.77400
C1317       C  0.83250174  0.26142413  0.25308769     0.85200
C1318       C  0.75019083  0.34369006  0.26206446     0.84800
O1319       O  0.76723868  0.26303615  0.32412699    -0.76300
C1320       C  0.66421694  0.26536420  0.25381882     0.85600
O1321       O  0.81786717  0.27396510  0.27448911    -0.76400
C1322       C  0.74206339  0.26580412  0.16849190     0.85700
C1323       C  0.75282919  0.17332443  0.24042758     0.86100
O1324       O  0.77164015  0.19012802  0.22801097    -0.78900
N1325       N  0.98610040  0.45853968  0.47608310    -0.34500
N1326       N  0.99327639  0.02397492  0.47151785    -0.55000
N1327       N  0.00533672  0.03439103  0.03963651    -0.34500
N1328       N  0.99315524  0.46732134  0.04262012    -0.55000
C1329       C  0.98254687  0.46393217  0.44532410     0.29100
C1330       C  0.97398769  0.43124456  0.48204052     0.29100
C1331       C  0.99880239  0.06405837  0.03184186     0.29100
C1332       C  0.99779319  0.03029720  0.06938425     0.29100
C1333       C  0.99973809  0.01770544  0.44191160     0.37700
C1334       C  0.00249887  0.05266497  0.47732808     0.37700
C1335       C  0.99446949  0.43659703  0.03761746     0.37700
C1336       C  0.99648257  0.47134909  0.07347602     0.37700
C1337       C  0.96805826  0.43975663  0.43168571    -0.19800
C1338       C  0.96242895  0.41933981  0.45476329    -0.19800
C1339       C  0.98739553  0.07919457  0.05703803    -0.19800
C1340       C  0.98661871  0.05792703  0.08055726    -0.19800
C1341       C  0.01311012  0.04252768  0.42899811    -0.20800
C1342       C  0.01474096  0.06467242  0.45131363    -0.20800
C1343       C  0.99844807  0.42110495  0.06536079    -0.20800
C1344       C  0.99970432  0.44297784  0.08794885    -0.20800
C1345       C  0.99299040  0.48955452  0.42913388    -0.16200
C1346       C  0.97515289  0.41554579  0.51086294    -0.16200
C1347       C  0.99474864  0.50010717  0.08894744    -0.16200
C1348       C  0.99839346  0.06898413  0.50509059    -0.16200
H1349       H  0.96200444  0.43710948  0.40763329     0.16700
H1350       H  0.95129987  0.39791259  0.45165710     0.16700
H1351       H  0.97992711  0.10301219  0.05825346     0.16700
H1352       H  0.97803104  0.06225860  0.10299867     0.16700
H1353       H  0.02142864  0.04433083  0.40612018     0.15000
H1354       H  0.02416336  0.08699294  0.44872588     0.15000
H1355       H  0.00015798  0.39654068  0.06908388     0.15000
H1356       H  0.00255507  0.43829951  0.11227412     0.15000
H1357       H  0.99897177  0.47083718  0.49166279     0.28300
H1358       H  0.01643426  0.01860746  0.02587688     0.28300
N1359       N  0.50194574  0.47457004  0.28504552    -0.34500
N1360       N  0.49236942  0.04034089  0.29476889    -0.55000
N1361       N  0.49683312  0.04098564  0.22626655    -0.34500
N1362       N  0.49998141  0.47568056  0.21594236    -0.55000
C1363       C  0.49210729  0.47907290  0.31392581     0.29100
C1364       C  0.49647505  0.44523717  0.27725550     0.29100
C1365       C  0.48468865  0.06905404  0.23216027     0.29100
C1366       C  0.49152873  0.03519809  0.19590285     0.29100
C1367       C  0.49691393  0.03629682  0.32556240     0.37700
C1368       C  0.49352551  0.07086462  0.28925672     0.37700
C1369       C  0.50899042  0.44622896  0.22186816     0.37700
C1370       C  0.50569994  0.48126273  0.18605906     0.37700
C1371       C  0.47976358  0.45237899  0.32410446    -0.19800
C1372       C  0.48297657  0.43091683  0.30125300    -0.19800
C1373       C  0.47115394  0.08102261  0.20539450    -0.19800
C1374       C  0.47567565  0.05980312  0.18254654    -0.19800
C1375       C  0.50087785  0.06441944  0.33959349    -0.20800
C1376       C  0.49886438  0.08622710  0.31667726    -0.20800
C1377       C  0.52049029  0.43310033  0.19566573    -0.20800
C1378       C  0.51839988  0.45524342  0.17305709    -0.20800
C1379       C  0.49479915  0.50648630  0.33132047    -0.16200
C1380       C  0.50497669  0.43042429  0.24990874    -0.16200
C1381       C  0.49946206  0.50960385  0.17050469    -0.16200
C1382       C  0.48789108  0.08532342  0.26025074    -0.16200
H1383       H  0.46908685  0.44869576  0.34550866     0.16700
H1384       H  0.47576320  0.40750391  0.30202066     0.16700
H1385       H  0.45949099  0.10301056  0.20248460     0.16700
H1386       H  0.46807502  0.06225626  0.15884436     0.16700
H1387       H  0.50489295  0.06887303  0.36377854     0.15000
H1388       H  0.50089937  0.11067245  0.31998503     0.15000
H1389       H  0.52955256  0.40997864  0.19307299     0.15000
H1390       H  0.52611288  0.45267116  0.14996035     0.15000
H1391       H  0.51456755  0.48933585  0.27245613     0.28300
H1392       H  0.51095803  0.02845992  0.24139352     0.28300
N1393       N  0.74055696  0.46816389  0.46099242    -0.34500
N1394       N  0.75848541  0.46211492  0.03213634    -0.55000
N1395       N  0.76724694  0.02552098  0.03196363    -0.34500
N1396       N  0.75804992  0.03141947  0.46173980    -0.55000
C1397       C  0.74583427  0.43769956  0.46548397     0.29100
C1398       C  0.74347972  0.47416428  0.43058740     0.29100
C1399       C  0.77388853  0.01923848  0.06206533     0.29100
C1400       C  0.77617752  0.05428247  0.02616272     0.29100
C1401       C  0.75533323  0.43174744  0.02711100     0.37700
C1402       C  0.75473070  0.46670680  0.06263921     0.37700
C1403       C  0.75079513  0.02640556  0.43160054     0.37700
C1404       C  0.75133297  0.06138022  0.46731387     0.37700
C1405       C  0.75177392  0.42405781  0.43746750    -0.19800
C1406       C  0.75002030  0.44696057  0.41548914    -0.19800
C1407       C  0.78694496  0.04436611  0.07557636    -0.19800
C1408       C  0.78877155  0.06625506  0.05292003    -0.19800
C1409       C  0.74945944  0.41712199  0.05445408    -0.20800
C1410       C  0.74909062  0.43914835  0.07681422    -0.20800
C1411       C  0.73916160  0.05319339  0.41824887    -0.20800
C1412       C  0.73985061  0.07538461  0.44061267    -0.20800
C1413       C  0.76010851  0.41623563  0.99902427    -0.16200
C1414       C  0.73877172  0.50333175  0.41614001    -0.16200
C1415       C  0.77150501  0.07064104  0.99794146    -0.16200
C1416       C  0.75889566  0.49486654  0.07828531    -0.16200
H1417       H  0.75676456  0.40002471  0.43315922     0.16700
H1418       H  0.75316330  0.44379501  0.39118749     0.16700
H1419       H  0.79506684  0.04643587  0.09912997     0.16700
H1420       H  0.79838204  0.08848491  0.05596892     0.16700
H1421       H  0.74628410  0.39289617  0.05810063     0.15000
H1422       H  0.74583407  0.43496132  0.10085750     0.15000
H1423       H  0.73021551  0.05627775  0.39514901     0.15000
H1424       H  0.73215941  0.09904355  0.43767396     0.15000
H1425       H  0.73265260  0.48329703  0.47737481     0.28300
H1426       H  0.75480961  0.01219381  0.01691771     0.28300
N1427       N  0.75296277  0.47328535  0.28026691    -0.34500
N1428       N  0.74959372  0.04243517  0.27873153    -0.55000
N1429       N  0.74672229  0.04078623  0.21019508    -0.34500
N1430       N  0.75502244  0.47617364  0.21144214    -0.55000
C1431       C  0.76153076  0.47789718  0.31008209     0.29100
C1432       C  0.76358786  0.44510608  0.27226730     0.29100
C1433       C  0.74480547  0.07147143  0.21483076     0.29100
C1434       C  0.75054359  0.03593481  0.17975098     0.29100
C1435       C  0.74944951  0.03890508  0.30973011     0.37700
C1436       C  0.74112282  0.07201279  0.27263138     0.37700
C1437       C  0.74941659  0.44629332  0.21649628     0.37700
C1438       C  0.74698143  0.48226969  0.18163982     0.37700
C1439       C  0.77792923  0.45244689  0.32097227    -0.19800
C1440       C  0.77973006  0.43208310  0.29699721    -0.19800
C1441       C  0.74663531  0.08634976  0.18675764    -0.19800
C1442       C  0.75053181  0.06409120  0.16482764    -0.19800
C1443       C  0.74111514  0.06645052  0.32321580    -0.20800
C1444       C  0.73585075  0.08726791  0.29993842    -0.20800
C1445       C  0.73771826  0.43343911  0.18978438    -0.20800
C1446       C  0.73605722  0.45622435  0.16788790    -0.20800
C1447       C  0.75406867  0.50402049  0.32793496    -0.16200
C1448       C  0.75659401  0.43000002  0.24419893    -0.16200
C1449       C  0.74909175  0.51118788  0.16684004    -0.16200
C1450       C  0.74029165  0.08657591  0.24334773    -0.16200
H1451       H  0.78792468  0.44891861  0.34369493     0.16700
H1452       H  0.79148408  0.41001987  0.29787407     0.16700
H1453       H  0.74517078  0.11076910  0.18223278     0.16700
H1454       H  0.75295941  0.06838574  0.14058704     0.16700
H1455       H  0.73945905  0.07146792  0.34731573     0.15000
H1456       H  0.72952004  0.11120573  0.30302962     0.20200
H1457       H  0.73049821  0.41023179  0.18644437     0.15000
H1458       H  0.72662558  0.45418445  0.14490093     0.15000
H1459       H  0.73778837  0.48676491  0.26715215     0.28300
H1460       H  0.74322469  0.02413778  0.22691046     0.28300
C1461       C  0.73498506  0.50564795  0.38165185    -0.14300
C1462       C  0.75771609  0.50146518  0.36246157    -0.29500
H1463       H  0.73940262  0.97564478  0.37265615     0.14700
H1464       H  0.77940772  0.49454984  0.37221916     0.15300
C1465       C  0.76182776  0.49390782  0.11305086    -0.14300
C1466       C  0.74725933  0.51347757  0.13197419    -0.29500
H1467       H  0.77524080  0.47517969  0.12336782     0.14700
H1468       H  0.73620938  0.02277794  0.11819945     0.15300
C1469       C  0.99623612  0.48708223  0.39467346    -0.14300
C1470       C  0.98505424  0.50849748  0.37432576    -0.29500
H1471       H  0.51011641  0.46396072  0.37756344     0.14700
H1472       H  0.97006852  0.02599925  0.38034564     0.15300
C1473       C  0.99061824  0.49928490  0.12346607    -0.14300
C1474       C  0.00376670  0.51796972  0.14437732    -0.29500
H1475       H  0.97713002  0.48128992  0.13224463     0.14700
H1476       H  0.51406779  0.03058745  0.13570182     0.15300
C1477       C  0.75612194  0.13978511  0.23629137    -0.14300
C1478       C  0.73477099  0.12047980  0.24321844    -0.29500
H1479       H  0.77699089  0.13055729  0.22786576     0.14700
H1480       H  0.71408257  0.12946428  0.25224623     0.15300
C1481       C  0.75763453  0.39560920  0.24269588    -0.14300
C1482       C  0.75085132  0.37712097  0.26605394    -0.29500
H1483       H  0.76307615  0.38491457  0.22099957     0.14700
H1484       H  0.74500793  0.38634403  0.28821150     0.15300
C1485       C  0.74441686  0.12985325  0.51387899    -0.14300
C1486       C  0.75826181  0.11116525  0.49396191    -0.29500
H1487       H  0.75049035  0.11524390  0.03540631     0.14700
H1488       H  0.76907791  0.12116260  0.47460040     0.15300
C1489       C  0.74657401  0.36307476  0.98586224    -0.14300
C1490       C  0.76448910  0.38232566  0.00099709    -0.29500
H1491       H  0.72896337  0.37227973  0.97046736     0.14700
H1492       H  0.76496156  0.37719159  0.50875473     0.15300
C1493       C  0.72678391  0.23839958  0.38476180    -0.14300
C1494       C  0.75133581  0.23960878  0.36858731    -0.29500
H1495       H  0.70504274  0.23992259  0.37316908     0.14700
H1496       H  0.77284416  0.24157027  0.38034723     0.15300
C1497       C  0.76328849  0.26543830  0.11842762    -0.14300
C1498       C  0.73900004  0.26601619  0.13512374    -0.29500
H1499       H  0.78503872  0.26870964  0.12923424     0.14700
H1500       H  0.71699004  0.26539092  0.12421653     0.15300
C1501       C  0.00209309  0.14023335  0.24628930    -0.14300
C1502       C  0.48452226  0.11953709  0.25945009    -0.29500
H1503       H  0.51273085  0.12487411  0.22247891     0.14700
H1504       H  0.96532595  0.13354803  0.27388063     0.15300
C1505       C  0.49320478  0.37802423  0.23280663    -0.14300
C1506       C  0.50910347  0.39632698  0.25125209    -0.29500
H1507       H  0.97470150  0.39270252  0.21578189     0.14700
H1508       H  0.52322595  0.38632497  0.26963640     0.15300
C1509       C  0.86519933  0.26259246  0.25442562    -0.14300
C1510       C  0.88151808  0.26206376  0.22909710    -0.29500
H1511       H  0.87618506  0.26436442  0.27693005     0.14700
H1512       H  0.87065144  0.26298489  0.20644325     0.15300
C1513       C  0.61341343  0.24708209  0.24655175    -0.14300
C1514       C  0.63158182  0.26969567  0.25440881    -0.29500
H1515       H  0.62296059  0.22484098  0.24021423     0.14700
H1516       H  0.62237541  0.29271450  0.25803735     0.15300
C1517       C  0.98523951  0.12137238  0.48618865    -0.14300
C1518       C  0.00173490  0.10284385  0.50518653    -0.29500
H1519       H  0.96953491  0.11140023  0.46990196     0.14700
H1520       H  0.98496338  0.12075776  0.98179695     0.15300
C1521       C  0.50161338  0.35793407  0.98608408    -0.14300
C1522       C  0.98869053  0.38799739  0.00779762    -0.29500
H1523       H  0.49608431  0.36938393  0.46609137     0.14700
H1524       H  0.97459827  0.37702318  0.02397240     0.15300
C1525       C  0.87473192  0.25398974  0.00400345    -0.14300
C1526       C  0.86968363  0.23814336  0.49174339    -0.29500
H1527       H  0.88285365  0.27377588  0.01643588     0.14700
H1528       H  0.86047296  0.22119866  0.47617970     0.15300
C1529       C  0.62469382  0.24658761  0.98272596    -0.14300
C1530       C  0.62049708  0.23637577  0.51202461    -0.29500
H1531       H  0.63273267  0.26207489  0.96553973     0.14700
H1532       H  0.61316123  0.22087404  0.52956752     0.15300
C1533       C  0.97486525  0.24647884  0.37235603    -0.14300
C1534       C  0.49952652  0.25787868  0.35465836    -0.29500
H1535       H  0.96109286  0.23005488  0.36035460     0.14700
H1536       H  0.51333252  0.27432120  0.36657842     0.15300
C1537       C  0.01961032  0.25235937  0.12830945    -0.14300
C1538       C  0.51607017  0.24048585  0.10473080    -0.29500
H1539       H  0.48167018  0.27418114  0.10827429     0.14700
H1540       H  0.98714936  0.28572131  0.11414307     0.15300
O1541       O  0.99258243  0.22287705  0.92496839    -0.76400
C1542       C  0.01728724  0.16479071  0.00743072     0.84700
O1543       O  0.91553885  0.25830853  0.51194354    -0.77500
O1544       O  0.50289123  0.22530072  0.55923643    -0.79000
O1545       O  0.57544610  0.25974421  0.96665766    -0.78800
O1546       O  0.51922171  0.25281155  0.91767682    -0.77400
Zn1547     Zn  0.98726110  0.21773385  0.97031555     1.55700
O1548       O  0.55716452  0.22518015  0.50944587    -0.78800
Cd1549     Cd  0.52992017  0.26404406  0.96137997     1.59700
Cd1550     Cd  0.96107742  0.26761079  0.51727837     1.59600
O1551       O  0.51898260  0.30984772  0.96832998    -0.78800
O1552       O  0.00863918  0.24930795  0.99211817    -1.89300
Cd1553     Cd  0.51265478  0.21384955  0.51510463     1.59900
O1554       O  0.96680097  0.31497250  0.51044904    -0.78700
O1555       O  0.50730113  0.16650613  0.50920021    -0.77400
C1556       C  0.92605306  0.24083602  0.98990407     0.85200
C1557       C  0.00412313  0.24364066  0.90906950     0.84800
O1558       O  0.00031393  0.17522425  0.98548299    -0.76300
C1559       C  0.56842833  0.24478801  0.49178830     0.85600
O1560       O  0.94315322  0.22137311  0.97699515    -0.76400
C1561       C  0.47913819  0.32635037  0.48326656     0.85700
C1562       C  0.48448198  0.24409238  0.57137733     0.86100
O1563       O  0.97838654  0.25778959  0.56097307    -0.78900
O1564       O  0.51754092  0.32396178  0.75206245    -0.76400
C1565       C  0.51241471  0.25182913  0.82151874     0.84700
O1566       O  0.57678334  0.22784692  0.72793021    -0.77500
O1567       O  0.98964837  0.19114168  0.75692030    -0.79000
O1568       O  0.93431319  0.28075907  0.72260078    -0.78800
O1569       O  0.98361383  0.33611062  0.72373403    -0.77400
Zn1570     Zn  0.53124918  0.27941832  0.76112087     1.55700
O1571       O  0.93623466  0.24735710  0.76145425    -0.78800
Cd1572     Cd  0.97802031  0.29023679  0.71577284     1.59700
Cd1573     Cd  0.53279788  0.22011780  0.71842784     1.59600
O1574       O  0.98444852  0.28275842  0.67060514    -0.78800
O1575       O  0.50639535  0.25050021  0.73906474    -1.89300
Cd1576     Cd  0.98170953  0.23724359  0.76665515     1.59900
O1577       O  0.52536747  0.22302167  0.67208334    -0.78700
O1578       O  0.99377347  0.24387982  0.81163139    -0.77400
C1579       C  0.58983365  0.25067411  0.73957633     0.85200
C1580       C  0.49887207  0.33637127  0.73263139     0.84800
O1581       O  0.52750875  0.27032294  0.80617334    -0.76300
C1582       C  0.92159626  0.26425224  0.74192943     0.85600
O1583       O  0.57541696  0.27330316  0.75121470    -0.76400
C1584       C  0.00125544  0.26468733  0.65578725     0.85700
C1585       C  0.00737681  0.17706953  0.73912476     0.86100
O1586       O  0.52468927  0.17542526  0.72974658    -0.78900
O1587       O  0.74934912  0.32386580  0.50253816    -0.76400
C1588       C  0.73920151  0.26750213  0.58416101     0.84700
O1589       O  0.83145697  0.22602524  0.99056834    -0.77500
O1590       O  0.72873629  0.17912705  0.53051068    -0.79000
O1591       O  0.68700689  0.25281558  0.98156815    -0.78800
O1592       O  0.73173889  0.31239954  0.97561720    -0.77400
Zn1593     Zn  0.75857994  0.28250497  0.52101696     1.55700
O1594       O  0.67057887  0.22713259  0.52857206    -0.78800
Cd1595     Cd  0.73003567  0.26497895  0.97381904     1.59700
Cd1596     Cd  0.78732273  0.21556353  0.98148863     1.59600
O1597       O  0.74033282  0.25283694  0.93014642    -0.78800
O1598       O  0.73542299  0.25062436  0.50223462    -1.89300
Cd1599     Cd  0.71646391  0.22524038  0.53367812     1.59900
O1600       O  0.78069673  0.22166002  0.93483763    -0.78700
O1601       O  0.72783468  0.24219911  0.57626485    -0.77400
C1602       C  0.81847945  0.25429404  0.50431868     0.85200
C1603       C  0.72826250  0.33560970  0.48576038     0.84800
O1604       O  0.74960338  0.28596680  0.56508542    -0.76300
C1605       C  0.67610536  0.23639709  0.00232375     0.85600
O1606       O  0.80255549  0.27383057  0.51854471    -0.76400
C1607       C  0.76125632  0.23681106  0.91859499     0.85700
C1608       C  0.76450687  0.15800836  0.01388558     0.86100
O1609       O  0.77984494  0.16992891  0.99310149    -0.78900
O1610       O  0.76918887  0.32960513  0.78304728    -0.76400
C1611       C  0.74479551  0.24979643  0.83401007     0.84700
O1612       O  0.82819743  0.25053544  0.73865587    -0.77500
O1613       O  0.73762055  0.18907215  0.75706240    -0.79000
O1614       O  0.68831480  0.29180814  0.73159422    -0.78800
O1615       O  0.74728609  0.33724219  0.73672225    -0.77400
Zn1616     Zn  0.77833221  0.28340024  0.78544370     1.55700
O1617       O  0.68409990  0.24582891  0.75310347    -0.78800
Cd1618     Cd  0.73424882  0.29329081  0.72610644     1.59700
Cd1619     Cd  0.78531174  0.23810356  0.72987760     1.59600
O1620       O  0.74176778  0.28180601  0.68101690    -0.78800
O1621       O  0.75640372  0.26295300  0.75313433    -1.89300
Cd1622     Cd  0.72688206  0.23421582  0.76819301     1.59900
O1623       O  0.77464651  0.24219948  0.68441949    -0.78700
O1624       O  0.72720262  0.23690913  0.81505686    -0.77400
C1625       C  0.83949766  0.26410041  0.76186428     0.85200
C1626       C  0.75868560  0.34745829  0.76174552     0.84800
O1627       O  0.76549795  0.26687963  0.82572858    -0.76300
C1628       C  0.67245706  0.27029397  0.74113200     0.85600
O1629       O  0.82335064  0.27614292  0.78241635    -0.76400
C1630       C  0.75725393  0.26027296  0.66891244     0.85700
C1631       C  0.76157062  0.17647994  0.74767128     0.86100
O1632       O  0.78312609  0.19210831  0.73927005    -0.78900
N1633       N  0.99992305  0.46587471  0.97482015    -0.34500
N1634       N  0.00130340  0.03213970  0.97025011    -0.55000
N1635       N  0.99455016  0.02507817  0.54061045    -0.34500
N1636       N  0.98170955  0.46046852  0.54452649    -0.55000
C1637       C  0.99619262  0.47137759  0.94420825     0.29100
C1638       C  0.98853559  0.43822191  0.98032159     0.29100
C1639       C  0.99097847  0.05519221  0.53318159     0.29100
C1640       C  0.98620336  0.02184924  0.57012265     0.29100
C1641       C  0.00693847  0.02629875  0.94034029     0.37700
C1642       C  0.00876290  0.06147046  0.97550847     0.37700
C1643       C  0.98106051  0.42983262  0.53960030     0.37700
C1644       C  0.98700607  0.46428283  0.57517709     0.37700
C1645       C  0.98205871  0.44714672  0.93029159    -0.19800
C1646       C  0.97698559  0.42634409  0.95306146    -0.19800
C1647       C  0.98037067  0.07126571  0.55820299    -0.19800
C1648       C  0.97706398  0.05022569  0.58128086    -0.19800
C1649       C  0.01835253  0.05183949  0.92679162    -0.20800
C1650       C  0.01913325  0.07423710  0.94886600    -0.20800
C1651       C  0.98575369  0.41421677  0.56725179    -0.20800
C1652       C  0.98954393  0.43594425  0.58968005    -0.20800
C1653       C  0.00599103  0.49735113  0.92852039    -0.16200
C1654       C  0.99075498  0.42211337  0.00862362    -0.16200
C1655       C  0.98799021  0.49306823  0.59034285    -0.16200
C1656       C  0.00371717  0.07799065  0.00290698    -0.16200
H1657       H  0.97555035  0.44483615  0.90638996     0.16700
H1658       H  0.96622587  0.40472037  0.94981272     0.16700
H1659       H  0.97510994  0.09563444  0.55957934     0.16700
H1660       H  0.96813507  0.05524445  0.60343210     0.16700
H1661       H  0.02576946  0.05401747  0.90362316     0.15000
H1662       H  0.02663357  0.09732370  0.94571186     0.15000
H1663       H  0.98650013  0.38964123  0.57098493     0.15000
H1664       H  0.99375082  0.43122676  0.61386304     0.15000
H1665       H  0.01270958  0.47829798  0.99042417     0.28300
H1666       H  0.00484997  0.00842693  0.52720571     0.28300
N1667       N  0.49736499  0.46813786  0.78450049    -0.34500
N1668       N  0.48681668  0.03513214  0.79453797    -0.55000
N1669       N  0.49047550  0.03606445  0.72620306    -0.34500
N1670       N  0.49536734  0.46907086  0.71556540    -0.55000
C1671       C  0.48964272  0.47195036  0.81425843     0.29100
C1672       C  0.49516911  0.43796959  0.77761396     0.29100
C1673       C  0.48092816  0.06512997  0.73202513     0.29100
C1674       C  0.48621396  0.03129828  0.69555148     0.29100
C1675       C  0.49076622  0.03088096  0.82531753     0.37700
C1676       C  0.48774421  0.06571786  0.78948854     0.37700
C1677       C  0.50501098  0.43972234  0.72119255     0.37700
C1678       C  0.50078499  0.47504750  0.68566337     0.37700
C1679       C  0.48240310  0.44378362  0.82615785    -0.19800
C1680       C  0.48615514  0.42240575  0.80330092    -0.19800
C1681       C  0.47036277  0.07894478  0.70486257    -0.19800
C1682       C  0.47379336  0.05766970  0.68190649    -0.19800
C1683       C  0.49384096  0.05895962  0.83975046    -0.20800
C1684       C  0.49198483  0.08093386  0.81713881    -0.20800
C1685       C  0.51651979  0.42711921  0.69471810    -0.20800
C1686       C  0.51376774  0.44936977  0.67230716    -0.20800
C1687       C  0.48919700  0.50010841  0.83094144    -0.16200
C1688       C  0.50246918  0.42361881  0.74942848    -0.16200
C1689       C  0.49403454  0.50336140  0.67023563    -0.16200
C1690       C  0.48371493  0.08049988  0.76058719    -0.16200
H1691       H  0.47467454  0.43900472  0.84876084     0.16700
H1692       H  0.48228767  0.39812203  0.80531392     0.16700
H1693       H  0.46140412  0.10215420  0.70180959     0.16700
H1694       H  0.46785438  0.06134547  0.65792971     0.16700
H1695       H  0.49695666  0.06339494  0.86401931     0.15000
H1696       H  0.49343294  0.10540186  0.82077079     0.15000
H1697       H  0.52627616  0.40433621  0.69180935     0.15000
H1698       H  0.52112976  0.44702427  0.64903555     0.15000
H1699       H  0.50642393  0.48441165  0.77041512     0.28300
H1700       H  0.50248525  0.02189320  0.74171776     0.28300
N1701       N  0.75479758  0.46035666  0.96326770    -0.34500
N1702       N  0.74706502  0.46613398  0.52945823    -0.55000
N1703       N  0.75449354  0.03263610  0.53103930    -0.34500
N1704       N  0.76721109  0.02631833  0.96303450    -0.55000
C1705       C  0.76273492  0.43085554  0.97009681     0.29100
C1706       C  0.75947908  0.46479451  0.93291227     0.29100
C1707       C  0.76151206  0.02742261  0.56133408     0.29100
C1708       C  0.76229669  0.06156343  0.52426251     0.29100
C1709       C  0.74325715  0.43599647  0.52330756     0.37700
C1710       C  0.74557437  0.46943814  0.56044694     0.37700
C1711       C  0.75760320  0.02278100  0.93334097     0.37700
C1712       C  0.76330742  0.05650074  0.96969665     0.37700
C1713       C  0.77246431  0.41633514  0.94374271    -0.19800
C1714       C  0.77022527  0.43766287  0.92029700    -0.19800
C1715       C  0.77379937  0.05342094  0.57389578    -0.19800
C1716       C  0.77448439  0.07482106  0.55057470    -0.19800
C1717       C  0.73950055  0.42022348  0.55055843    -0.20800
C1718       C  0.74089289  0.44126659  0.57387514    -0.20800
C1719       C  0.74725914  0.05071680  0.92143012    -0.20800
C1720       C  0.75131061  0.07211518  0.94414649    -0.20800
C1721       C  0.74460722  0.42171725  0.49394058    -0.16200
C1722       C  0.75327324  0.49249039  0.91630357    -0.16200
C1723       C  0.75697392  0.07688055  0.49550699    -0.16200
C1724       C  0.75032621  0.49704183  0.57707072    -0.16200
H1725       H  0.78032116  0.39273301  0.94151814     0.16700
H1726       H  0.77613345  0.43366990  0.89674276     0.16700
H1727       H  0.78214016  0.05643822  0.59723353     0.16700
H1728       H  0.78322435  0.09754315  0.55281532     0.16700
H1729       H  0.73622408  0.39591724  0.55347173     0.15000
H1730       H  0.73909645  0.43612454  0.59799551     0.15000
H1731       H  0.73706586  0.05513892  0.89905165     0.15000
H1732       H  0.74533637  0.09633326  0.94230186     0.15000
H1733       H  0.74403898  0.47556235  0.97789256     0.28300
H1734       H  0.74256064  0.01847276  0.51632057     0.28300
N1735       N  0.75363334  0.47832326  0.78067392    -0.34500
N1736       N  0.75202347  0.04511493  0.78186280    -0.55000
N1737       N  0.74656527  0.04642943  0.71354258    -0.34500
N1738       N  0.75343902  0.47999818  0.71152307    -0.55000
C1739       C  0.76229195  0.48450972  0.81018095     0.29100
C1740       C  0.76600383  0.45070031  0.77320084     0.29100
C1741       C  0.74985500  0.07652515  0.71972967     0.29100
C1742       C  0.75034722  0.04242556  0.68294996     0.29100
C1743       C  0.75210546  0.04044740  0.81266718     0.37700
C1744       C  0.74590190  0.07538918  0.77721921     0.37700
C1745       C  0.75037331  0.44981630  0.71764431     0.37700
C1746       C  0.74381771  0.48461387  0.68187941     0.37700
C1747       C  0.78064619  0.46064457  0.82145057    -0.19800
C1748       C  0.78321566  0.43949028  0.79808848    -0.19800
C1749       C  0.75547681  0.09192821  0.69272160    -0.19800
C1750       C  0.75606640  0.07045012  0.66968427    -0.19800
C1751       C  0.74663247  0.06798778  0.82753564    -0.20800
C1752       C  0.74248444  0.09000239  0.80519542    -0.20800
C1753       C  0.73860312  0.43536484  0.69181732    -0.20800
C1754       C  0.73433568  0.45737833  0.66935521    -0.20800
C1755       C  0.75372043  0.51109977  0.82703039    -0.16200
C1756       C  0.76007107  0.43464670  0.74532723    -0.16200
C1757       C  0.74369407  0.51318225  0.66607554    -0.16200
C1758       C  0.74590530  0.09084884  0.74859555    -0.16200
H1759       H  0.79147688  0.45883673  0.84396992     0.16700
H1760       H  0.79639547  0.41828231  0.79936694     0.16700
H1761       H  0.75854377  0.11622753  0.68964201     0.16700
H1762       H  0.75975343  0.07519450  0.64576453     0.16700
H1763       H  0.74585703  0.07208338  0.85188044     0.15000
H1764       H  0.73819597  0.11421904  0.80923925     0.20200
H1765       H  0.73314792  0.41148866  0.68942195     0.15000
H1766       H  0.72450048  0.45383596  0.64673306     0.15000
H1767       H  0.73768885  0.49058280  0.76730439     0.28300
H1768       H  0.73887529  0.03064806  0.72887820     0.28300
C1769       C  0.74962252  0.49080567  0.88149379    -0.14300
C1770       C  0.75873489  0.51232049  0.86160953    -0.29500
H1771       H  0.73817599  0.97614110  0.87370499     0.14700
H1772       H  0.76916636  0.53253266  0.87088230     0.15300
C1773       C  0.75395877  0.49506163  0.61175277    -0.14300
C1774       C  0.74018184  0.51466213  0.63128312    -0.29500
H1775       H  0.76787240  0.47634651  0.62134072     0.14700
H1776       H  0.73066161  0.03500904  0.62132110     0.15300
C1777       C  0.01111258  0.49458580  0.89458144    -0.14300
C1778       C  0.99805005  0.51374226  0.87327853    -0.29500
H1779       H  0.51473377  0.46394531  0.87815372     0.14700
H1780       H  0.97606981  0.03537259  0.87994002     0.15300
C1781       C  0.98717758  0.49342715  0.62513194    -0.14300
C1782       C  0.00218816  0.51309941  0.64350410    -0.29500
H1783       H  0.97480475  0.47583793  0.63622119     0.14700
H1784       H  0.51016871  0.02518394  0.63637358     0.15300
C1785       C  0.76483781  0.14286940  0.74609028    -0.14300
C1786       C  0.74184206  0.12467536  0.74927537    -0.29500
H1787       H  0.78656611  0.13270020  0.74146644     0.14700
H1788       H  0.72005917  0.13433710  0.75439805     0.15300
C1789       C  0.76444788  0.40040101  0.74374867    -0.14300
C1790       C  0.75870232  0.38095105  0.76665882    -0.29500
H1791       H  0.77054777  0.39049688  0.72188157     0.14700
H1792       H  0.75251978  0.38947971  0.78898957     0.15300
C1793       C  0.76346449  0.12420510  0.01706143    -0.14300
C1794       C  0.77579443  0.10456939  0.99698496    -0.29500
H1795       H  0.73217747  0.11989170  0.53226478     0.14700
H1796       H  0.78706580  0.11372872  0.97749871     0.15300
C1797       C  0.72720544  0.36931721  0.48038860    -0.14300
C1798       C  0.74738553  0.38748502  0.49400603    -0.29500
H1799       H  0.70882402  0.37956485  0.46672415     0.14700
H1800       H  0.78125766  0.37327209  0.01744245     0.15300
C1801       C  0.76397527  0.23715892  0.88528853    -0.14300
C1802       C  0.74080539  0.24505254  0.86664538    -0.29500
H1803       H  0.78560079  0.23201520  0.87590862     0.14700
H1804       H  0.71862807  0.24793077  0.87541466     0.15300
C1805       C  0.74163398  0.27515170  0.61655608    -0.14300
C1806       C  0.75433407  0.25464591  0.63602694    -0.29500
H1807       H  0.73504825  0.29806710  0.62406341     0.14700
H1808       H  0.76294203  0.23277905  0.62745433     0.15300
C1809       C  0.00839872  0.14319970  0.73806036    -0.14300
C1810       C  0.48286384  0.11458043  0.76021334    -0.29500
H1811       H  0.51985531  0.11682685  0.73244443     0.14700
H1812       H  0.97696589  0.13719604  0.77193655     0.15300
C1813       C  0.49446673  0.37023289  0.73102012    -0.14300
C1814       C  0.50829080  0.38955619  0.75037723    -0.29500
H1815       H  0.98432933  0.39510526  0.72501768     0.14700
H1816       H  0.52267708  0.38020500  0.76888414     0.15300
C1817       C  0.87216647  0.26541547  0.76506168    -0.14300
C1818       C  0.88897272  0.26398130  0.74021102    -0.29500
H1819       H  0.88247239  0.26812593  0.78776649     0.14700
H1820       H  0.87835454  0.26405568  0.71742213     0.15300
C1821       C  0.62258431  0.24925351  0.74050139    -0.14300
C1822       C  0.63963159  0.27387795  0.73888395    -0.29500
H1823       H  0.63312817  0.22644617  0.74143323     0.14700
H1824       H  0.62943540  0.29665166  0.73561633     0.15300
C1825       C  0.01881872  0.13137832  0.01404962    -0.14300
C1826       C  0.00066487  0.11196018  0.99944484    -0.29500
H1827       H  0.03523013  0.12249239  0.03095016     0.14700
H1828       H  0.01610200  0.11263177  0.52286586     0.15300
C1829       C  0.47999645  0.36003892  0.48126912    -0.14300
C1830       C  0.97028327  0.38174819  0.51115975    -0.29500
H1831       H  0.51592413  0.36860679  0.96989696     0.14700
H1832       H  0.95549246  0.37239232  0.52767442     0.15300
C1833       C  0.85118386  0.25635330  0.50757395    -0.14300
C1834       C  0.89390564  0.23537854  0.98939733    -0.29500
H1835       H  0.86016262  0.27373611  0.52276090     0.14700
H1836       H  0.88590428  0.21560181  0.97687839     0.15300
C1837       C  0.60065225  0.24965041  0.49205593    -0.14300
C1838       C  0.64389285  0.23214096  0.00258001    -0.29500
H1839       H  0.60829838  0.26526599  0.47475819     0.14700
H1840       H  0.63573937  0.21708122  0.02008513     0.15300
C1841       C  0.00102930  0.24230179  0.87559469    -0.14300
C1842       C  0.51661146  0.25092685  0.85479711    -0.29500
H1843       H  0.98710770  0.22496742  0.86529994     0.14700
H1844       H  0.53001175  0.26844244  0.86554324     0.15300
C1845       C  0.99657279  0.26456804  0.62244760    -0.14300
C1846       C  0.48500230  0.24754348  0.60456293    -0.29500
H1847       H  0.52362229  0.21953047  0.61286725     0.14700
H1848       H  0.02287516  0.22463473  0.61474799     0.15300
O1849       O  0.97429571  0.72733999  0.42378266    -0.76400
C1850       C  0.99099201  0.65356406  0.49060556     0.84700
O1851       O  0.93625890  0.77449902  0.01174651    -0.77500
O1852       O  0.53549484  0.72216526  0.06067018    -0.79000
O1853       O  0.56158003  0.75225971  0.47393888    -0.78800
O1854       O  0.50721616  0.75718540  0.42145567    -0.77400
Zn1855     Zn  0.96709015  0.71524722  0.46654530     1.55700
O1856       O  0.58023002  0.72312612  0.00287740    -0.78800
Cd1857     Cd  0.51681469  0.76262387  0.46671703     1.59700
Cd1858     Cd  0.98084973  0.78024897  0.01906769     1.59600
O1859       O  0.50961402  0.80844477  0.47628217    -0.78800
O1860       O  0.99079190  0.73979551  0.49433279    -1.89300
Cd1861     Cd  0.53805896  0.71206950  0.01545089     1.59900
O1862       O  0.99001724  0.82489564  0.00876889    -0.78700
O1863       O  0.53275249  0.66527323  0.01224572    -0.77400
C1864       C  0.90794470  0.73912260  0.48998591     0.85200
C1865       C  0.99197150  0.74523799  0.41130497     0.84800
O1866       O  0.97614709  0.66984604  0.47086366    -0.76300
C1867       C  0.58940018  0.74171147  0.98296364     0.85600
O1868       O  0.92365184  0.72164571  0.47326146    -0.76400
C1869       C  0.50228125  0.82390305  0.99320122     0.85700
C1870       C  0.51765570  0.73900336  0.07561267     0.86100
O1871       O  0.99014495  0.77599556  0.06451843    -0.78900
O1872       O  0.52486844  0.83203368  0.25938434    -0.76400
C1873       C  0.50755018  0.75997234  0.32501950     0.84700
O1874       O  0.58208048  0.74230142  0.22781251    -0.77500
O1875       O  0.99197599  0.68912910  0.26499838    -0.79000
O1876       O  0.94261739  0.77223531  0.21593442    -0.78800
O1877       O  0.98953170  0.83039135  0.21929284    -0.77400
Zn1878     Zn  0.53400088  0.78654072  0.26851030     1.55700
O1879       O  0.94019459  0.74650332  0.25993603    -0.78800
Cd1880     Cd  0.98714890  0.78307762  0.21552677     1.59700
Cd1881     Cd  0.53773338  0.73370970  0.21753581     1.59600
O1882       O  0.00362152  0.77033529  0.17474456    -0.78800
O1883       O  0.51046156  0.75984113  0.24229425    -1.89300
Cd1884     Cd  0.98447854  0.73618799  0.27077113     1.59900
O1885       O  0.52866897  0.74371120  0.17226915    -0.78700
O1886       O  0.99196452  0.74668505  0.31538956    -0.77400
C1887       C  0.59389173  0.75958054  0.24805984     0.85200
C1888       C  0.50540008  0.84619939  0.24213550     0.84800
O1889       O  0.52387568  0.77888114  0.31192040    -0.76300
C1890       C  0.92773152  0.75940160  0.23637079     0.85600
O1891       O  0.57824256  0.77684302  0.26521384    -0.76400
C1892       C  0.02448078  0.75261639  0.16551663     0.85700
C1893       C  0.01244784  0.67371513  0.25186456     0.86100
O1894       O  0.53090794  0.68698016  0.22353483    -0.78900
O1895       O  0.77523206  0.81627740  0.99469994    -0.76400
C1896       C  0.76606705  0.76156415  0.07422823     0.84700
O1897       O  0.81279181  0.72982497  0.48423697    -0.77500
O1898       O  0.74630279  0.67602079  0.02565224    -0.79000
O1899       O  0.67202016  0.76707857  0.46326579    -0.78800
O1900       O  0.72334951  0.82157947  0.46597532    -0.77400
Zn1901     Zn  0.78466935  0.77326166  0.00946550     1.55700
O1902       O  0.69097262  0.72596038  0.01903297    -0.78800
Cd1903     Cd  0.71725827  0.77480779  0.46173943     1.59700
Cd1904     Cd  0.76873756  0.71935468  0.47459665     1.59600
O1905       O  0.73163211  0.76167676  0.41968471    -0.78800
O1906       O  0.75696180  0.74423822  0.99243374    -1.89300
Cd1907     Cd  0.73647228  0.72241017  0.02499578     1.59900
O1908       O  0.76203495  0.72044295  0.42766759    -0.78700
O1909       O  0.74853858  0.74050474  0.06633114    -0.77400
C1910       C  0.83901619  0.73868051  0.98495051     0.85200
C1911       C  0.75230049  0.82969213  0.98228976     0.84800
O1912       O  0.78108200  0.77594903  0.05508284    -0.76300
C1913       C  0.65732273  0.74929299  0.47978662     0.85600
O1914       O  0.82690415  0.76056614  0.99999079    -0.76400
C1915       C  0.74810818  0.73970803  0.40997895     0.85700
C1916       C  0.74306484  0.66429613  0.50836436     0.86100
O1917       O  0.76163366  0.67509813  0.49008594    -0.78900
O1918       O  0.77317778  0.83133655  0.25946960    -0.76400
C1919       C  0.75624151  0.76059640  0.32687728     0.84700
O1920       O  0.83398120  0.74251059  0.23323298    -0.77500
O1921       O  0.74306516  0.68545597  0.25912255    -0.79000
O1922       O  0.69229576  0.77168159  0.21382698    -0.78800
O1923       O  0.73886201  0.82902568  0.22157929    -0.77400
Zn1924     Zn  0.78340859  0.78668684  0.27017381     1.55700
O1925       O  0.68992107  0.74243605  0.25567486    -0.78800
Cd1926     Cd  0.73685849  0.78248911  0.21293306     1.59700
Cd1927     Cd  0.79075662  0.73059922  0.22386876     1.59600
O1928       O  0.75172713  0.77293477  0.16967400    -0.78800
O1929       O  0.76158497  0.75853194  0.24393287    -1.89300
Cd1930     Cd  0.73448485  0.73210406  0.26673372     1.59900
O1931       O  0.78355679  0.73294155  0.17759463    -0.78700
O1932       O  0.74167481  0.74028542  0.31250003    -0.77400
C1933       C  0.84471346  0.76180936  0.25208597     0.85200
C1934       C  0.75460869  0.84435919  0.24045032     0.84800
O1935       O  0.77190598  0.77993813  0.31347692    -0.76300
C1936       C  0.67741681  0.75716363  0.23313259     0.85600
O1937       O  0.82814815  0.77923512  0.26815814    -0.76400
C1938       C  0.76874203  0.75139738  0.15992501     0.85700
C1939       C  0.76514472  0.67108527  0.24762007     0.86100
O1940       O  0.78610185  0.68512569  0.23554169    -0.78900
N1941       N  0.98816923  0.95841973  0.47339815    -0.34500
N1942       N  0.99456134  0.52303280  0.47441848    -0.55000
N1943       N  0.00134159  0.53254092  0.04269782    -0.34500
N1944       N  0.00001601  0.96894690  0.04040726    -0.55000
C1945       C  0.98502442  0.96335159  0.44255280     0.29100
C1946       C  0.97872787  0.92986494  0.47922845     0.29100
C1947       C  0.99510612  0.56232936  0.03494508     0.29100
C1948       C  0.99331275  0.52843334  0.07227279     0.29100
C1949       C  0.00138652  0.51645703  0.44499898     0.37700
C1950       C  0.00545200  0.55089496  0.48073086     0.37700
C1951       C  0.00391090  0.93837155  0.03574334     0.37700
C1952       C  0.00482115  0.97361837  0.07096966     0.37700
C1953       C  0.97353423  0.93755439  0.42873288    -0.19800
C1954       C  0.96941807  0.91658050  0.45175526    -0.19800
C1955       C  0.98343415  0.57740460  0.06005441    -0.19800
C1956       C  0.98235410  0.55613692  0.08347205    -0.19800
C1957       C  0.01685329  0.54017592  0.43270546    -0.20800
C1958       C  0.01933270  0.56203908  0.45527158    -0.20800
C1959       C  0.01145239  0.92369769  0.06333936    -0.20800
C1960       C  0.01188347  0.94590185  0.08555754    -0.20800
C1961       C  0.99336609  0.98994644  0.42637445    -0.16200
C1962       C  0.97975526  0.91469039  0.50830953    -0.16200
C1963       C  0.00057748  0.00209914  0.08626651    -0.16200
C1964       C  0.00088766  0.56743317  0.50823208    -0.16200
H1965       H  0.96852300  0.93413772  0.40456767     0.16700
H1966       H  0.96065148  0.89397655  0.44849637     0.16700
H1967       H  0.97601030  0.60122377  0.06134037     0.16700
H1968       H  0.97336131  0.56044403  0.10577094     0.16700
H1969       H  0.02578367  0.54146158  0.41005111     0.15000
H1970       H  0.03020080  0.58365908  0.45318400     0.15000
H1971       H  0.01570207  0.89938475  0.06724197     0.15000
H1972       H  0.01654724  0.94188138  0.10974500     0.15000
H1973       H  0.99903723  0.97222840  0.48923544     0.28300
H1974       H  0.01232634  0.51651969  0.02910774     0.28300
N1975       N  0.50636300  0.97601075  0.29540486    -0.34500
N1976       N  0.49648868  0.54015682  0.28581135    -0.55000
N1977       N  0.50019178  0.54171622  0.21760512    -0.34500
N1978       N  0.50566333  0.97622827  0.22590750    -0.55000
C1979       C  0.49607251  0.97977345  0.32423920     0.29100
C1980       C  0.50360524  0.94611503  0.28785878     0.29100
C1981       C  0.49355281  0.57155497  0.22390941     0.29100
C1982       C  0.49426792  0.53730713  0.18708410     0.29100
C1983       C  0.49979928  0.53487899  0.31653921     0.37700
C1984       C  0.50129495  0.57032001  0.28132892     0.37700
C1985       C  0.51731259  0.94794367  0.23265759     0.37700
C1986       C  0.51133989  0.98184610  0.19602470     0.37700
C1987       C  0.48627302  0.95199251  0.33469072    -0.19800
C1988       C  0.49137304  0.93072427  0.31200873    -0.19800
C1989       C  0.48326444  0.58626478  0.19710339    -0.19800
C1990       C  0.48380855  0.56476916  0.17396803    -0.19800
C1991       C  0.50674775  0.56182836  0.33152348    -0.20800
C1992       C  0.50777355  0.58415923  0.30932458    -0.20800
C1993       C  0.53061941  0.93561796  0.20696937    -0.20800
C1994       C  0.52681146  0.95707614  0.18379672    -0.20800
C1995       C  0.49577650  0.00768234  0.34117708    -0.16200
C1996       C  0.51327840  0.93190047  0.26053928    -0.16200
C1997       C  0.50176444  0.00885728  0.17977748    -0.16200
C1998       C  0.49778548  0.58624541  0.25284121    -0.16200
H1999       H  0.47584431  0.94749251  0.35606522     0.16700
H2000       H  0.48619899  0.90668272  0.31300990     0.16700
H2001       H  0.47607943  0.61009016  0.19437892     0.16700
H2002       H  0.47726117  0.56899452  0.15017741     0.16700
H2003       H  0.51062346  0.56521364  0.35589650     0.15000
H2004       H  0.51246819  0.60801188  0.31345359     0.15000
H2005       H  0.54165309  0.91330380  0.20499304     0.15000
H2006       H  0.53466289  0.95471855  0.16071491     0.15000
H2007       H  0.51736831  0.99201131  0.28261094     0.28300
H2008       H  0.51100894  0.52628739  0.23279181     0.28300
N2009       N  0.75526149  0.96588753  0.46323279    -0.34500
N2010       N  0.76826477  0.95954999  0.03064836    -0.55000
N2011       N  0.75734599  0.52741222  0.03152117    -0.34500
N2012       N  0.74580080  0.53352349  0.46328502    -0.55000
C2013       C  0.76216018  0.93609584  0.46992289     0.29100
C2014       C  0.76092372  0.97036000  0.43313325     0.29100
C2015       C  0.76430304  0.52217368  0.06177560     0.29100
C2016       C  0.76733867  0.55534221  0.02420494     0.29100
C2017       C  0.76580332  0.92918877  0.02496445     0.37700
C2018       C  0.76617706  0.96312857  0.06147148     0.37700
C2019       C  0.73673502  0.53076992  0.43340954     0.37700
C2020       C  0.74319441  0.56370762  0.47011252     0.37700
C2021       C  0.77257310  0.92157092  0.44391209    -0.19800
C2022       C  0.77163256  0.94309382  0.42073064    -0.19800
C2023       C  0.77861033  0.54723640  0.07388550    -0.19800
C2024       C  0.78086476  0.56796990  0.05015985    -0.19800
C2025       C  0.76244225  0.91348521  0.05227319    -0.20800
C2026       C  0.76274587  0.93486920  0.07524590    -0.20800
C2027       C  0.72809203  0.55927489  0.42145605    -0.20800
C2028       C  0.73245027  0.58014364  0.44453132    -0.20800
C2029       C  0.76785506  0.91485409  0.99588345    -0.16200
C2030       C  0.75497999  0.99788703  0.41620055    -0.16200
C2031       C  0.76258629  0.57038191  0.99529893    -0.16200
C2032       C  0.76908331  0.99121666  0.07756816    -0.16200
H2033       H  0.77989125  0.89779530  0.44171151     0.16700
H2034       H  0.77804204  0.93899234  0.39739223     0.16700
H2035       H  0.78735104  0.54994431  0.09713576     0.16700
H2036       H  0.79140576  0.58984274  0.05194848     0.16700
H2037       H  0.76023988  0.88904142  0.05545960     0.15000
H2038       H  0.76131937  0.92979587  0.09933492     0.15000
H2039       H  0.71937806  0.56458289  0.39860632     0.15000
H2040       H  0.72808119  0.60467153  0.44270252     0.15000
H2041       H  0.74410170  0.98112952  0.47748463     0.28300
H2042       H  0.74422893  0.51399384  0.01714478     0.28300
N2043       N  0.75918292  0.97687929  0.28100885    -0.34500
N2044       N  0.74819303  0.53873857  0.28325694    -0.55000
N2045       N  0.74719114  0.54198992  0.21482896    -0.34500
N2046       N  0.76031413  0.97549981  0.21208497    -0.55000
C2047       C  0.76553590  0.98368948  0.31099052     0.29100
C2048       C  0.77017800  0.94813347  0.27566815     0.29100
C2049       C  0.74915723  0.57216548  0.22180234     0.29100
C2050       C  0.75094720  0.53886421  0.18406785     0.29100
C2051       C  0.74714175  0.53293946  0.31386482     0.37700
C2052       C  0.74378516  0.56940036  0.27942334     0.37700
C2053       C  0.76060697  0.94501155  0.21838035     0.37700
C2054       C  0.75504417  0.97871829  0.18128221     0.37700
C2055       C  0.78063503  0.95881290  0.32475696    -0.19800
C2056       C  0.78326218  0.93636560  0.30274362    -0.19800
C2057       C  0.75364702  0.58841775  0.19493986    -0.19800
C2058       C  0.75504576  0.56751130  0.17138485    -0.19800
C2059       C  0.74255672  0.56014669  0.32951170    -0.20800
C2060       C  0.74023449  0.58313012  0.30785626    -0.20800
C2061       C  0.75620010  0.92892645  0.19118361    -0.20800
C2062       C  0.75189200  0.95018666  0.16814546    -0.20800
C2063       C  0.75824546  0.01174171  0.32627158    -0.16200
C2064       C  0.76686559  0.93132528  0.24781544    -0.16200
C2065       C  0.75315681  0.00699889  0.16473287    -0.16200
C2066       C  0.74555738  0.58579996  0.25129993    -0.16200
H2067       H  0.78939964  0.95709680  0.34811114     0.16700
H2068       H  0.79390516  0.91397881  0.30641355     0.16700
H2069       H  0.75537426  0.61294056  0.19218451     0.16700
H2070       H  0.75831847  0.57302130  0.14753506     0.16700
H2071       H  0.74262840  0.56344751  0.35400406     0.15000
H2072       H  0.73750728  0.60738090  0.31273558     0.20200
H2073       H  0.75611445  0.90441057  0.18770115     0.15000
H2074       H  0.74627064  0.94507209  0.14455201     0.15000
H2075       H  0.74540353  0.98971099  0.26558406     0.28300
H2076       H  0.74098501  0.52513761  0.22983606     0.28300
C2077       C  0.75124616  0.99521537  0.38150412    -0.14300
C2078       C  0.76281294  0.01443319  0.36088329    -0.29500
H2079       H  0.71326574  0.51274412  0.37207557     0.14700
H2080       H  0.77496170  0.03386452  0.36953777     0.15300
C2081       C  0.77076658  0.99026259  0.11224645    -0.14300
C2082       C  0.75216383  0.00712230  0.12985776    -0.29500
H2083       H  0.78701879  0.97451651  0.12328892     0.14700
H2084       H  0.73398862  0.53229113  0.12162273     0.15300
C2085       C  0.99716353  0.98758117  0.39200881    -0.14300
C2086       C  0.98401621  0.00754772  0.37135163    -0.29500
H2087       H  0.51531552  0.96708345  0.38777512     0.14700
H2088       H  0.97323663  0.52830413  0.38366027     0.15300
C2089       C  0.99548510  0.00045253  0.12057159    -0.14300
C2090       C  0.00751981  0.01889246  0.14233184    -0.29500
H2091       H  0.98253378  0.98160599  0.12848189     0.14700
H2092       H  0.51250426  0.52981619  0.12587814     0.15300
C2093       C  0.76682138  0.63718384  0.24743884    -0.14300
C2094       C  0.74351475  0.61996019  0.25317823    -0.29500
H2095       H  0.78747189  0.62592933  0.24074065     0.14700
H2096       H  0.72283118  0.63074083  0.26035227     0.15300
C2097       C  0.77149810  0.89721504  0.24977713    -0.14300
C2098       C  0.75037021  0.87807410  0.24018512    -0.29500
H2099       H  0.79230061  0.88782524  0.25970238     0.14700
H2100       H  0.72949788  0.88756930  0.23047286     0.15300
C2101       C  0.74278602  0.63090161  0.51428371    -0.14300
C2102       C  0.75806357  0.61056995  0.49735228    -0.29500
H2103       H  0.74470529  0.61734520  0.03144031     0.14700
H2104       H  0.77171678  0.61876504  0.47918139     0.15300
C2105       C  0.75078721  0.86350786  0.98028066    -0.14300
C2106       C  0.77047701  0.88073579  0.99566710    -0.29500
H2107       H  0.73252009  0.87458787  0.96707346     0.14700
H2108       H  0.77334211  0.87570407  0.51657795     0.15300
C2109       C  0.75145294  0.73696676  0.37700135    -0.14300
C2110       C  0.75450578  0.76223068  0.36011236    -0.29500
H2111       H  0.75245247  0.71429587  0.36666544     0.14700
H2112       H  0.75635555  0.78451994  0.37105665     0.15300
C2113       C  0.76892373  0.76904125  0.10671890    -0.14300
C2114       C  0.77029309  0.74614001  0.12711672    -0.29500
H2115       H  0.76952417  0.79287408  0.11392235     0.14700
H2116       H  0.77234608  0.72246001  0.11940172     0.15300
C2117       C  0.01226267  0.63989034  0.25111180    -0.14300
C2118       C  0.49632785  0.62055959  0.25413048    -0.29500
H2119       H  0.52946485  0.62719672  0.22220038     0.14700
H2120       H  0.97458536  0.63499168  0.27781644     0.15300
C2121       C  0.50315711  0.88001943  0.24137184    -0.14300
C2122       C  0.51796348  0.89790419  0.26120476    -0.29500
H2123       H  0.98563999  0.89011333  0.21689051     0.14700
H2124       H  0.53158764  0.88757410  0.27979701     0.15300
C2125       C  0.87721806  0.76359932  0.25590889    -0.14300
C2126       C  0.89518785  0.75901287  0.23226409    -0.29500
H2127       H  0.88655129  0.76954588  0.27836263     0.14700
H2128       H  0.88576403  0.75594595  0.20921850     0.15300
C2129       C  0.62655565  0.75924522  0.25245312    -0.14300
C2130       C  0.64476723  0.75717376  0.22871999    -0.29500
H2131       H  0.63582147  0.76227463  0.27556860     0.14700
H2132       H  0.63544394  0.75725286  0.20537568     0.15300
C2133       C  0.99016138  0.61990037  0.48814624    -0.14300
C2134       C  0.00471789  0.60114901  0.50848472    -0.29500
H2135       H  0.97637376  0.61025483  0.46988504     0.14700
H2136       H  0.98051143  0.61836277  0.98357794     0.15300
C2137       C  0.50354635  0.85773807  0.99366528    -0.14300
C2138       C  0.99593457  0.88900641  0.00873044    -0.29500
H2139       H  0.50985640  0.86691236  0.47723550     0.14700
H2140       H  0.98288150  0.87933763  0.02664199     0.15300
C2141       C  0.87173220  0.73594904  0.98380172    -0.14300
C2142       C  0.87543303  0.73612977  0.48763538    -0.29500
H2143       H  0.88146928  0.71730533  0.97057631     0.14700
H2144       H  0.86676683  0.71928782  0.47162339     0.15300
C2145       C  0.62153081  0.74562637  0.97993400    -0.14300
C2146       C  0.62472461  0.74901512  0.47521250    -0.29500
H2147       H  0.62865676  0.75948881  0.96096263     0.14700
H2148       H  0.61409994  0.76551795  0.45925528     0.15300
C2149       C  0.99073986  0.74740699  0.37802339    -0.14300
C2150       C  0.50645178  0.76058532  0.35832128    -0.29500
H2151       H  0.97607102  0.73207557  0.36565498     0.14700
H2152       H  0.52153894  0.77536175  0.37084521     0.15300
C2153       C  0.02838113  0.74992274  0.13259376    -0.14300
C2154       C  0.52249164  0.74053188  0.10867842    -0.29500
H2155       H  0.49397968  0.77943839  0.11347597     0.14700
H2156       H  0.99398576  0.78261180  0.12172430     0.15300
O2157       O  0.98178212  0.72340820  0.93181749    -0.76400
C2158       C  0.00932571  0.66417228  0.01183014     0.84700
O2159       O  0.91960377  0.75858293  0.50823573    -0.77500
O2160       O  0.51170941  0.71305089  0.55920669    -0.79000
O2161       O  0.57155919  0.75777851  0.96575080    -0.78800
O2162       O  0.51033165  0.75428382  0.92110144    -0.77400
Zn2163     Zn  0.97891333  0.71963025  0.97783434     1.55700
O2164       O  0.56185973  0.71229921  0.50582561    -0.78800
Cd2165     Cd  0.52591471  0.76375732  0.96417931     1.59700
Cd2166     Cd  0.96405380  0.76800785  0.51791511     1.59600
O2167       O  0.51783718  0.80959428  0.97369476    -0.78800
O2168       O  0.00526122  0.74919892  0.99707346    -1.89300
Cd2169     Cd  0.51745223  0.70618518  0.51347855     1.59900
O2170       O  0.97164458  0.81450867  0.50918078    -0.78700
O2171       O  0.50884288  0.66113389  0.50344820    -0.77400
C2172       C  0.92208717  0.75305095  0.99890456     0.85200
C2173       C  0.99434967  0.74245275  0.91468402     0.84800
O2174       O  0.98978383  0.67559151  0.99263887    -0.76300
C2175       C  0.57543960  0.73157324  0.48999219     0.85600
O2176       O  0.93541465  0.73027368  0.98632067    -0.76400
C2177       C  0.49166235  0.82358336  0.49281562     0.85700
C2178       C  0.49588342  0.73237029  0.57378143     0.86100
O2179       O  0.97329511  0.76002447  0.56401463    -0.78900
O2180       O  0.50414101  0.82657241  0.75759848    -0.76400
C2181       C  0.49470318  0.75384123  0.82563165     0.84700
O2182       O  0.56246757  0.73971696  0.72574194    -0.77500
O2183       O  0.98166933  0.68836915  0.76303262    -0.79000
O2184       O  0.91629746  0.77934775  0.73676002    -0.78800
O2185       O  0.96481232  0.83492727  0.72705416    -0.77400
Zn2186     Zn  0.51391069  0.78199946  0.76705412     1.55700
O2187       O  0.92377242  0.73746826  0.76589273    -0.78800
Cd2188     Cd  0.95872701  0.78840761  0.72304322     1.59700
Cd2189     Cd  0.51838451  0.72910945  0.71656853     1.59600
O2190       O  0.96126297  0.77818729  0.67723590    -0.78800
O2191       O  0.49087129  0.75417688  0.74219631    -1.89300
Cd2192     Cd  0.96935669  0.73355273  0.77217786     1.59900
O2193       O  0.50713740  0.73707675  0.67111484    -0.78700
O2194       O  0.97974708  0.74233302  0.81725806    -0.77400
C2195       C  0.57369771  0.75736280  0.74602709     0.85200
C2196       C  0.48509148  0.84068868  0.73997356     0.84800
O2197       O  0.50668996  0.77481601  0.81069027    -0.76300
C2198       C  0.90654620  0.75735960  0.75242899     0.85600
O2199       O  0.55763921  0.77400437  0.76318630    -0.76400
C2200       C  0.98036663  0.76295828  0.66214009     0.85700
C2201       C  0.99885667  0.67634727  0.74346095     0.86100
O2202       O  0.51395027  0.68229808  0.72370607    -0.78900
O2203       O  0.75645531  0.82252385  0.50492876    -0.76400
C2204       C  0.73179371  0.76206366  0.57496475     0.84700
O2205       O  0.82369218  0.71861287  0.97104517    -0.77500
O2206       O  0.72374375  0.68139954  0.52119230    -0.79000
O2207       O  0.68347358  0.75544536  0.97746843    -0.78800
O2208       O  0.73033990  0.81471232  0.97205030    -0.77400
Zn2209     Zn  0.76407688  0.77841525  0.51796969     1.55700
O2210       O  0.66985284  0.73237866  0.50063839    -0.78800
Cd2211     Cd  0.72614516  0.76769664  0.96747086     1.59700
Cd2212     Cd  0.77823004  0.71258675  0.96748261     1.59600
O2213       O  0.73244425  0.75769178  0.92253733    -0.78800
O2214       O  0.74113829  0.75041551  0.49317567    -1.89300
Cd2215     Cd  0.71277827  0.72777419  0.51788537     1.59900
O2216       O  0.76456492  0.71741121  0.92190003    -0.78700
O2217       O  0.71316916  0.74531571  0.56113627    -0.77400
C2218       C  0.82407178  0.75066741  0.50105373     0.85200
C2219       C  0.74014618  0.83626757  0.48437391     0.84800
O2220       O  0.75292229  0.77455455  0.56155573    -0.76300
C2221       C  0.67372892  0.73890611  0.99883701     0.85600
O2222       O  0.80795621  0.76990317  0.51542375    -0.76400
C2223       C  0.74734905  0.73728348  0.90828798     0.85700
C2224       C  0.75821274  0.65814673  0.00627176     0.86100
O2225       O  0.77032299  0.66826380  0.98237836    -0.78900
O2226       O  0.74727764  0.83745444  0.75868047    -0.76400
C2227       C  0.73795485  0.76410078  0.82605974     0.84700
O2228       O  0.81332868  0.75029815  0.73666121    -0.77500
O2229       O  0.72625971  0.68964528  0.75726212    -0.79000
O2230       O  0.67053149  0.77348276  0.71338764    -0.78800
O2231       O  0.71305370  0.83485957  0.72088867    -0.77400
Zn2232     Zn  0.76034541  0.79408287  0.76888980     1.55700
O2233       O  0.67014910  0.74353925  0.75499402    -0.78800
Cd2234     Cd  0.71355857  0.78780032  0.71318556     1.59700
Cd2235     Cd  0.77113850  0.73920696  0.72258187     1.59600
O2236       O  0.72848276  0.77988001  0.67033100    -0.78800
O2237       O  0.74016699  0.76457391  0.74309911    -1.89300
Cd2238     Cd  0.71523255  0.73584732  0.76590554     1.59900
O2239       O  0.76791356  0.74755588  0.67627288    -0.78700
O2240       O  0.72366769  0.74347575  0.81177976    -0.77400
C2241       C  0.82271969  0.77299360  0.75199446     0.85200
C2242       C  0.72884662  0.85035850  0.73955233     0.84800
O2243       O  0.75151667  0.78509064  0.81252153    -0.76300
C2244       C  0.65683484  0.75745452  0.73236272     0.85600
O2245       O  0.80503591  0.79212768  0.76457188    -0.76400
C2246       C  0.74976189  0.76379742  0.65957360     0.85700
C2247       C  0.74800310  0.67700572  0.74349360     0.86100
O2248       O  0.76702180  0.69277100  0.73016414    -0.78900
N2249       N  0.00143749  0.96681037  0.97219684    -0.34500
N2250       N  0.00259395  0.53071903  0.97357911    -0.55000
N2251       N  0.99582723  0.52380734  0.54368858    -0.34500
N2252       N  0.98337843  0.96052966  0.54151159    -0.55000
C2253       C  0.99449354  0.97178651  0.94196262     0.29100
C2254       C  0.99297828  0.93823304  0.97905119     0.29100
C2255       C  0.99250883  0.55387048  0.53608573     0.29100
C2256       C  0.98735074  0.52084697  0.57317864     0.29100
C2257       C  0.01097543  0.52509001  0.94443112     0.37700
C2258       C  0.00851069  0.56031066  0.97946899     0.37700
C2259       C  0.98377074  0.92974846  0.53701516     0.37700
C2260       C  0.98715450  0.96495925  0.57227808     0.37700
C2261       C  0.98148403  0.94610431  0.92956604    -0.19800
C2262       C  0.98026349  0.92504740  0.95298520    -0.19800
C2263       C  0.98167745  0.57013857  0.56090962    -0.19800
C2264       C  0.97822785  0.54928741  0.58413462    -0.19800
C2265       C  0.02276389  0.55103437  0.93202496    -0.20800
C2266       C  0.02077653  0.57349287  0.95401226    -0.20800
C2267       C  0.98757605  0.91468461  0.56504956    -0.20800
C2268       C  0.98972725  0.93685546  0.58724800    -0.20800
C2269       C  0.00079580  0.99841650  0.92509742    -0.16200
C2270       C  0.99826277  0.92299845  0.00760350    -0.16200
C2271       C  0.98681383  0.99396534  0.58720481    -0.16200
C2272       C  0.00041170  0.57652836  0.00617355    -0.16200
H2273       H  0.97352358  0.94286312  0.90616268     0.16700
H2274       H  0.97115034  0.90247689  0.95090369     0.16700
H2275       H  0.97657462  0.59454665  0.56214141     0.16700
H2276       H  0.96931862  0.55446034  0.60626165     0.16700
H2277       H  0.03159684  0.55365066  0.90947002     0.15000
H2278       H  0.02757864  0.59692435  0.95156377     0.15000
H2279       H  0.98877140  0.89017183  0.56919294     0.15000
H2280       H  0.99284438  0.93256643  0.61162432     0.15000
H2281       H  0.01426870  0.98051469  0.98654491     0.28300
H2282       H  0.00621610  0.50700674  0.53049372     0.28300
N2283       N  0.49645788  0.96998156  0.79428578    -0.34500
N2284       N  0.48717529  0.53383351  0.78502233    -0.55000
N2285       N  0.49124480  0.53554877  0.71708218    -0.34500
N2286       N  0.49441032  0.97077102  0.72488905    -0.55000
C2287       C  0.48856811  0.97423718  0.82391563     0.29100
C2288       C  0.49149048  0.94036014  0.78699700     0.29100
C2289       C  0.48254699  0.56497659  0.72292683     0.29100
C2290       C  0.48669542  0.53071729  0.68647068     0.29100
C2291       C  0.49007307  0.52905461  0.81584482     0.37700
C2292       C  0.48823381  0.56456370  0.78050210     0.37700
C2293       C  0.50316785  0.94139295  0.73110601     0.37700
C2294       C  0.50106424  0.97624895  0.69525404     0.37700
C2295       C  0.47851438  0.94699582  0.83537999    -0.19800
C2296       C  0.48050521  0.92563927  0.81227356    -0.19800
C2297       C  0.47233130  0.57896197  0.69574397    -0.19800
C2298       C  0.47503990  0.55746728  0.67284996    -0.19800
C2299       C  0.49266926  0.55693674  0.83076318    -0.20800
C2300       C  0.49167945  0.57925877  0.80853066    -0.20800
C2301       C  0.51550901  0.92818018  0.70533135    -0.20800
C2302       C  0.51426555  0.95027992  0.68269613    -0.20800
C2303       C  0.48991369  0.00217583  0.84067138    -0.16200
C2304       C  0.49808343  0.92563221  0.75886432    -0.16200
C2305       C  0.49450766  0.00428300  0.67943374    -0.16200
C2306       C  0.48458428  0.58005294  0.75181676    -0.16200
H2307       H  0.46978754  0.94303527  0.85774065     0.16700
H2308       H  0.47418998  0.90196800  0.81383389     0.16700
H2309       H  0.46372556  0.60228781  0.69262921     0.16700
H2310       H  0.46896767  0.56122144  0.64892116     0.16700
H2311       H  0.49499055  0.56105178  0.85513707     0.15000
H2312       H  0.49314860  0.60363793  0.81269381     0.15000
H2313       H  0.52456525  0.90501377  0.70305729     0.15000
H2314       H  0.52244091  0.94757401  0.65978943     0.15000
H2315       H  0.50722636  0.98540012  0.78060321     0.28300
H2316       H  0.50251023  0.52079428  0.73261992     0.28300
N2317       N  0.76214729  0.96082108  0.96251785    -0.34500
N2318       N  0.75740090  0.96684520  0.53160073    -0.55000
N2319       N  0.74761410  0.53203916  0.53203929    -0.34500
N2320       N  0.75942109  0.52521315  0.96184251    -0.55000
C2321       C  0.76899300  0.93070230  0.96748876     0.29100
C2322       C  0.76478493  0.96625786  0.93203944     0.29100
C2323       C  0.75524534  0.52519142  0.56179712     0.29100
C2324       C  0.75703192  0.56059970  0.52625002     0.29100
C2325       C  0.75373449  0.93654495  0.52653275     0.37700
C2326       C  0.75378349  0.97140803  0.56209533     0.37700
C2327       C  0.74964921  0.52060459  0.93238288     0.37700
C2328       C  0.75353172  0.55512934  0.96807017     0.37700
C2329       C  0.77603888  0.91690515  0.93987300    -0.19800
C2330       C  0.77310757  0.93921371  0.91756422    -0.19800
C2331       C  0.76939063  0.54985077  0.57506248    -0.19800
C2332       C  0.77060580  0.57210150  0.55266296    -0.19800
C2333       C  0.74778983  0.92194423  0.55384208    -0.20800
C2334       C  0.74804295  0.94387199  0.57624775    -0.20800
C2335       C  0.73685988  0.54748103  0.92034677    -0.20800
C2336       C  0.73982845  0.56948638  0.94263733    -0.20800
C2337       C  0.75769653  0.92113458  0.49827889    -0.16200
C2338       C  0.75883721  0.99469637  0.91679004    -0.16200
C2339       C  0.75238662  0.57713798  0.49825421    -0.16200
C2340       C  0.75747714  0.99962167  0.57771269    -0.16200
H2341       H  0.78255045  0.89313599  0.93602691     0.16700
H2342       H  0.77692271  0.93578650  0.89348747     0.16700
H2343       H  0.77863677  0.55140501  0.59823522     0.16700
H2344       H  0.78054409  0.59420370  0.55551906     0.16700
H2345       H  0.74413689  0.89781460  0.55748190     0.15000
H2346       H  0.74487611  0.93962905  0.60025729     0.15000
H2347       H  0.72584063  0.55075888  0.89820141     0.15000
H2348       H  0.73227100  0.59327176  0.94058323     0.15000
H2349       H  0.75322594  0.97590899  0.97842039     0.28300
H2350       H  0.73443552  0.51919352  0.51724448     0.28300
N2351       N  0.75049859  0.97961921  0.78118009    -0.34500
N2352       N  0.74516219  0.54397601  0.78111699    -0.55000
N2353       N  0.74071383  0.54516195  0.71301293    -0.34500
N2354       N  0.74933993  0.98069983  0.71202587    -0.55000
C2355       C  0.76028488  0.98398306  0.81076520     0.29100
C2356       C  0.75666540  0.94993079  0.77396817     0.29100
C2357       C  0.74167625  0.57559060  0.71917124     0.29100
C2358       C  0.74500578  0.54135447  0.68247073     0.29100
C2359       C  0.74323323  0.53839872  0.81167668     0.37700
C2360       C  0.73500311  0.57327501  0.77618078     0.37700
C2361       C  0.74337592  0.95095138  0.71735073     0.37700
C2362       C  0.74373342  0.98610001  0.68157143     0.37700
C2363       C  0.77267858  0.95669653  0.82232472    -0.19800
C2364       C  0.77002396  0.93517029  0.79945630    -0.19800
C2365       C  0.74625858  0.59129987  0.69202643    -0.19800
C2366       C  0.74860836  0.56978884  0.66909016    -0.19800
C2367       C  0.73184035  0.56429221  0.82604657    -0.20800
C2368       C  0.72665050  0.58626869  0.80373074    -0.20800
C2369       C  0.73445405  0.93732659  0.68989969    -0.20800
C2370       C  0.73417510  0.95965375  0.66758410    -0.20800
C2371       C  0.75816649  0.01189875  0.82761024    -0.16200
C2372       C  0.74881665  0.93525576  0.74582729    -0.16200
C2373       C  0.74704241  0.01465750  0.66631700    -0.16200
C2374       C  0.73603473  0.58964975  0.74801138    -0.16200
H2375       H  0.78317500  0.95275631  0.84467902     0.16700
H2376       H  0.77750883  0.91138767  0.80149856     0.16700
H2377       H  0.74716097  0.61580470  0.68857418     0.16700
H2378       H  0.75203181  0.57475328  0.64515490     0.16700
H2379       H  0.72803150  0.56742377  0.85012043     0.15000
H2380       H  0.71830240  0.60945652  0.80761285     0.20200
H2381       H  0.72877964  0.91376485  0.68590128     0.15000
H2382       H  0.72686118  0.95689948  0.64397701     0.15000
H2383       H  0.73768418  0.99484914  0.76748997     0.28300
H2384       H  0.73416308  0.52850802  0.72820558     0.28300
C2385       C  0.75258847  0.99383238  0.88241618    -0.14300
C2386       C  0.76500743  0.01244901  0.86189774    -0.29500
H2387       H  0.73960093  0.47049282  0.87187684     0.14700
H2388       H  0.77962498  0.02997513  0.87056178     0.15300
C2389       C  0.76056482  0.99841860  0.61247534    -0.14300
C2390       C  0.74487964  0.01681552  0.63150051    -0.29500
H2391       H  0.77486114  0.98029631  0.62266910     0.14700
H2392       H  0.72652631  0.53341336  0.62133730     0.15300
C2393       C  0.00221416  0.99581873  0.89059891    -0.14300
C2394       C  0.98849964  0.01596691  0.87061492    -0.29500
H2395       H  0.51489838  0.96393692  0.88606702     0.14700
H2396       H  0.98394247  0.53250476  0.88140941     0.15300
C2397       C  0.98430010  0.99440179  0.62184153    -0.14300
C2398       C  0.99900960  0.01357650  0.64104691    -0.29500
H2399       H  0.97069862  0.97730508  0.63206588     0.14700
H2400       H  0.50990990  0.52354995  0.62691717     0.15300
C2401       C  0.75211434  0.64318529  0.74268740    -0.14300
C2402       C  0.73073742  0.62369449  0.74917606    -0.29500
H2403       H  0.77344471  0.63387248  0.73556635     0.14700
H2404       H  0.70948899  0.63259305  0.75689057     0.15300
C2405       C  0.74983344  0.90108351  0.74606242    -0.14300
C2406       C  0.72629437  0.88416601  0.73859552    -0.29500
H2407       H  0.77055831  0.88954507  0.75360583     0.14700
H2408       H  0.70549282  0.89522442  0.73057339     0.15300
C2409       C  0.75670235  0.62481841  0.01171794    -0.14300
C2410       C  0.76763703  0.60387599  0.99222333    -0.29500
H2411       H  0.72754453  0.62263320  0.53096447     0.14700
H2412       H  0.77807314  0.61159366  0.97158957     0.15300
C2413       C  0.74052934  0.87006121  0.48163959    -0.14300
C2414       C  0.75877632  0.88693366  0.49927190    -0.29500
H2415       H  0.72527468  0.88143344  0.46505069     0.14700
H2416       H  0.78767707  0.86976650  0.01041126     0.15300
C2417       C  0.74477305  0.73716905  0.87480028    -0.14300
C2418       C  0.73935451  0.76352720  0.85944425    -0.29500
H2419       H  0.74891449  0.71582359  0.86256101     0.14700
H2420       H  0.73827651  0.78530027  0.87155527     0.15300
C2421       C  0.72908279  0.76631615  0.60772773    -0.14300
C2422       C  0.75303989  0.76335348  0.62649942    -0.29500
H2423       H  0.70697626  0.76845991  0.61683485     0.14700
H2424       H  0.77474183  0.75785089  0.61745617     0.15300
C2425       C  0.00277324  0.64267295  0.74158918    -0.14300
C2426       C  0.48096399  0.61430601  0.75270301    -0.29500
H2427       H  0.51538883  0.62263234  0.72279015     0.14700
H2428       H  0.97314026  0.63286187  0.77626976     0.15300
C2429       C  0.48391241  0.87459422  0.73915881    -0.14300
C2430       C  0.49994980  0.89144925  0.75905787    -0.29500
H2431       H  0.96649281  0.89426876  0.72374139     0.14700
H2432       H  0.51327048  0.88012570  0.77731040     0.15300
C2433       C  0.85490055  0.77763578  0.75434419    -0.14300
C2434       C  0.87436578  0.75366703  0.75399482    -0.29500
H2435       H  0.86271375  0.80089951  0.75603265     0.14700
H2436       H  0.86642996  0.73042446  0.75491161     0.15300
C2437       C  0.60612474  0.75834301  0.75069936    -0.14300
C2438       C  0.62458954  0.75495302  0.72747807    -0.29500
H2439       H  0.61497473  0.76375254  0.77350859     0.14700
H2440       H  0.61569971  0.75273486  0.70410815     0.15300
C2441       C  0.01140498  0.63071525  0.01814827    -0.14300
C2442       C  0.99537509  0.61036641  0.00230992    -0.29500
H2443       H  0.02759933  0.62237053  0.03554343     0.14700
H2444       H  0.01729037  0.61078698  0.52766596     0.15300
C2445       C  0.49374887  0.85750768  0.49234080    -0.14300
C2446       C  0.97589433  0.88068897  0.50911217    -0.29500
H2447       H  0.51785738  0.86819416  0.97733308     0.14700
H2448       H  0.95946784  0.87161352  0.52402204     0.15300
C2449       C  0.85660457  0.75331616  0.50411952    -0.14300
C2450       C  0.88937394  0.75541287  0.99901755    -0.29500
H2451       H  0.86521226  0.77038708  0.51990395     0.14700
H2452       H  0.87950588  0.77417127  0.01200471     0.15300
C2453       C  0.60816805  0.72999948  0.49130547    -0.14300
C2454       C  0.64164619  0.73404207  0.00068029    -0.29500
H2455       H  0.61893025  0.71327656  0.50694872     0.14700
H2456       H  0.63439731  0.72055409  0.01987141     0.15300
C2457       C  0.98851396  0.74161365  0.88143286    -0.14300
C2458       C  0.49845455  0.75453183  0.85887275    -0.29500
H2459       H  0.97606501  0.72283396  0.87173115     0.14700
H2460       H  0.51007413  0.77377557  0.86882627     0.15300
C2461       C  0.97629564  0.76174060  0.62869988    -0.14300
C2462       C  0.49879314  0.73213695  0.60727354    -0.29500
H2463       H  0.46803061  0.76904777  0.61290148     0.14700
H2464       H  0.00836603  0.72596936  0.62379818     0.15300
loop_ 
_geom_bond_atom_site_label_1 
_geom_bond_atom_site_label_2 
_geom_bond_distance 
_geom_bond_site_symmetry_2 
_ccdc_geom_bond_type 
O1           C17   1.273       .  A
O1           Zn7   2.011       .  S
C2           O18   1.274       .  A
C2         O1555   1.278       .  A
C2          C285   1.482       .  S
O3          C324   1.276   1_554  A
O3          Cd10   2.075       .  S
O4           C22   1.277       .  A
O4          Cd13   2.059       .  S
O5          C327   1.268       .  A
O5           Cd9   2.049       .  S
O6         C1249   1.268       .  A
O6           Cd9   2.002   1_655  S
Zn7          O18   2.019       .  S
Zn7          O20   2.029       .  S
Zn7          O12   1.939       .  S
O8           C19   1.278   1_554  A
O8          Cd13   2.089       .  S
Cd9          O11   2.037       .  S
Cd9        O1244   1.975   1_455  S
Cd10         O14   2.093       .  S
Cd10         O23   2.038       .  S
Cd10        O320   1.992   1_554  S
O11         C329   1.268   1_455  A
O12       Cd1241   1.975       .  S
O12        Cd318   2.005       .  S
O12       Cd1553   2.010       .  S
Cd13         O15   2.080       .  S
Cd13       O1552   1.994   1_554  S
O14        C1253   1.275   1_554  A
O15        C1542   1.274       .  A
C16          O20   1.274       .  A
C16         O311   1.274       .  A
C16         C294   1.478       .  S
C17        O1238   1.269       .  A
C17         C301   1.458       .  S
C19         O313   1.271       .  A
C19         C297   1.477       .  S
C21         O319   1.273       .  A
C21        O1246   1.272   1_456  A
C21         C289   1.475       .  S
C22        O1255   1.266   1_455  A
C22         C306   1.451       .  S
O23        C1254   1.275       .  A
O24          C40   1.273   1_455  A
O24         Zn30   2.012       .  S
C25          O41   1.272   1_655  A
C25        O1270   1.271       .  A
C25         C302   1.448       .  S
O26          C39   1.271       .  A
O26         Cd33   2.046       .  S
O27          C45   1.274       .  A
O27         Cd36   2.073       .  S
O28          C42   1.272       .  A
O28         Cd32   2.066       .  S
O29        C1272   1.271       .  A
O29         Cd32   2.054       .  S
Zn30         O41   1.987       .  S
Zn30         O43   2.037       .  S
Zn30         O35   1.940   1_455  S
O31          C42   1.273       .  A
O31         Cd36   2.072       .  S
Cd32         O34   2.026       .  S
Cd32       O1267   1.989       .  S
Cd33         O37   2.021       .  S
Cd33         O46   2.056       .  S
Cd33         O35   1.987   1_455  S
O34          C44   1.268       .  A
O35       Cd1264   1.990       .  S
O35       Cd1268   1.985       .  S
Cd36         O38   2.013       .  S
Cd36       O1267   1.991       .  S
O37        C1276   1.268       .  A
O38        C1257   1.270       .  A
C39          O43   1.274       .  A
C39         C281   1.475       .  S
C40        O1261   1.275       .  A
C40         C273   1.482       .  S
C42         C278   1.470       .  S
C44        O1269   1.274       .  A
C44         C305   1.452       .  S
C45        O1278   1.272       .  A
C45         C269   1.475       .  S
O46        C1277   1.270       .  A
O47          C63   1.273   1_554  A
O47         Zn53   2.011       .  S
C48          O64   1.270       .  A
C48          O61   1.271       .  A
C48         C265   1.452       .  S
O49         C370   1.274       .  A
O49         Cd56   2.069       .  S
O50         C376   1.272       .  A
O50         Cd59   2.062       .  S
O51          C65   1.279       .  A
O51         Cd55   2.097       .  S
O52         C371   1.277       .  A
O52         Cd55   2.102       .  S
Zn53         O64   1.995       .  S
Zn53         O66   1.996       .  S
Zn53         O58   1.939       .  S
O54         C373   1.270       .  A
O54         Cd59   2.050       .  S
Cd55         O57   2.055       .  S
Cd55        O366   1.994       .  S
Cd56         O60   2.046       .  S
Cd56         O69   2.066       .  S
Cd56        O366   1.991       .  S
O57          C67   1.276       .  A
O58         Cd59   1.985       .  S
O58        Cd363   1.998   1_554  S
O58        Cd364   2.002   1_554  S
Cd59         O61   2.030       .  S
O60          C67   1.272       .  A
C62          O66   1.270   1_556  A
C62         O357   1.276       .  A
C62         C293   1.474       .  S
C63         O360   1.274       .  A
C63         C257   1.479       .  S
C65         O362   1.270       .  A
C65         C298   1.473       .  S
C67         C261   1.454       .  S
C68          O69   1.274       .  A
C68         O358   1.272       .  A
C68         C253   1.474       .  S
O70          C86   1.277       .  A
O70         Zn76   2.048       .  S
C71          O87   1.273       .  A
C71          O84   1.274       .  A
C71         C262   1.456       .  S
O72          C85   1.273       .  A
O72         Cd79   2.058       .  S
O73          C91   1.274       .  A
O73         Cd82   2.070       .  S
O74          C88   1.274       .  A
O74         Cd78   2.073       .  S
O75          C86   1.273       .  A
O75         Cd78   2.069       .  S
Zn76         O87   2.002       .  S
Zn76         O89   2.035       .  S
Zn76         O81   1.941       .  S
O77          C88   1.272       .  A
O77         Cd82   2.067       .  S
Cd78         O80   2.058       .  S
Cd78         O81   1.996       .  S
Cd79         O83   2.033       .  S
Cd79         O92   2.087       .  S
Cd79         O81   1.985       .  S
O80          C90   1.273       .  A
O81         Cd82   1.990       .  S
Cd82         O84   2.039       .  S
O83          C90   1.273       .  A
C85          O89   1.275       .  A
C85         C277   1.473       .  S
C86         C250   1.481       .  S
C88         C282   1.470       .  S
C90         C266   1.453       .  S
C91          O92   1.275       .  A
C91         C245   1.482       .  S
N93          C98   1.353       .  A
N93          C97   1.361       .  A
N93         H125   1.040       .  S
N94         C101   1.358       .  A
N94         C102   1.354       .  A
N95         C100   1.363       .  A
N95          C99   1.357       .  A
N95         H126   1.041       .  S
N96         C103   1.357       .  A
N96         C104   1.361       .  A
C97         C105   1.384       .  A
C97         C113   1.421       .  A
C98         C114   1.424       .  A
C98         C106   1.389       .  A
C99         C107   1.387       .  A
C99         C424   1.424       .  A
C100        C108   1.386       .  A
C100        C731   1.428   1_545  A
C101        C109   1.384       .  A
C101        C729   1.420   1_545  A
C102        C116   1.422       .  A
C102        C110   1.387       .  A
C103        C111   1.387       .  A
C103        C422   1.423       .  A
C104        C112   1.386       .  A
C104        C115   1.426       .  A
C105        C106   1.377       .  A
C105        H117   1.080       .  S
C106        H118   1.082       .  S
C107        C108   1.381       .  A
C107        H119   1.082       .  S
C108        H120   1.080       .  S
C109        C110   1.375       .  A
C109        H121   1.082       .  S
C110        H122   1.082       .  S
C111        C112   1.373       .  A
C111        H123   1.082       .  S
C112        H124   1.081       .  S
C113        C237   1.514       .  S
C113        C717   1.417       .  A
C114        C598   1.493       .  S
C114        C411   1.419       .  A
C115        C241   1.521       .  S
C115        C716   1.426       .  A
C116        C286   1.500       .  S
C116        C407   1.421       .  A
N127        C132   1.354       .  A
N127        C131   1.364       .  A
N127        H159   1.039   1_655  S
N128        C135   1.359       .  A
N128        C136   1.354       .  A
N129        C134   1.361       .  A
N129        C133   1.353       .  A
N129        H160   1.039   1_655  S
N130        C137   1.354   1_655  A
N130        C138   1.360   1_655  A
C131        C139   1.385       .  A
C131        C147   1.426       .  A
C132        C148   1.423       .  A
C132        C140   1.389       .  A
C133        C141   1.388       .  A
C133        C150   1.422       .  A
C134        C142   1.385       .  A
C134        C765   1.421   1_655  A
C135        C143   1.386       .  A
C135        C763   1.421       .  A
C136        C150   1.418       .  A
C136        C144   1.387       .  A
C137        C145   1.389       .  A
C137        C148   1.423   1_455  A
C138        C146   1.383       .  A
C138        C149   1.422       .  A
C139        C140   1.378       .  A
C139        H151   1.080       .  S
C140        H152   1.082       .  S
C141        C142   1.375       .  A
C141        H153   1.082       .  S
C142        H154   1.080       .  S
C143        C144   1.371       .  A
C143        H155   1.081       .  S
C144        H156   1.082       .  S
C145        C146   1.375       .  A
C145        H157   1.082       .  S
C146        H158   1.081       .  S
C147       C1470   1.522       .  S
C147        C751   1.421       .  A
C148        C274   1.494   1_655  S
C149       C1474   1.520       .  S
C149        C750   1.423   1_455  A
C150        C270   1.491       .  S
N161        C166   1.361       .  A
N161        C165   1.357       .  A
N161        H193   1.038       .  S
N162        C169   1.355       .  A
N162        C170   1.358       .  A
N163        C168   1.353       .  A
N163        C167   1.360       .  A
N163        H194   1.039       .  S
N164        C171   1.358       .  A
N164        C172   1.351       .  A
C165        C173   1.389       .  A
C165        C489   1.426       .  A
C166        C182   1.423       .  A
C166        C174   1.385       .  A
C167        C175   1.387       .  A
C167        C800   1.423   1_545  A
C168        C183   1.420       .  A
C168        C176   1.387       .  A
C169        C181   1.417       .  A
C169        C177   1.385       .  A
C170        C184   1.420       .  A
C170        C178   1.385       .  A
C171        C179   1.384       .  A
C171        C798   1.416   1_545  A
C172        C180   1.388       .  A
C172        C491   1.416       .  A
C173        C174   1.376       .  A
C173        H185   1.082       .  S
C174        H186   1.082       .  S
C175        C176   1.379       .  A
C175        H187   1.082       .  S
C176        H188   1.082       .  S
C177        C178   1.368       .  A
C177        H189   1.082       .  S
C178        H190   1.076       .  S
C179        C180   1.372       .  A
C179        H191   1.081       .  S
C180        H192   1.082       .  S
C181        C258   1.491       .  S
C181        C473   1.418   1_554  A
C182        C229   1.518       .  S
C182        C787   1.422       .  A
C183        C562   1.487       .  S
C183        C480   1.415   1_554  A
C184        C233   1.516       .  S
C184        C783   1.428       .  A
N195        C200   1.355       .  A
N195        C199   1.363       .  A
N195        H227   1.040       .  S
N196        C203   1.360       .  A
N196        C204   1.354       .  A
N197        C202   1.363       .  A
N197        C201   1.356       .  A
N197        H228   1.038       .  S
N198        C205   1.356       .  A
N198        C206   1.361       .  A
C199        C207   1.384       .  A
C199        C215   1.424       .  A
C200        C216   1.425       .  A
C200        C208   1.390       .  A
C201        C209   1.389       .  A
C201        C218   1.426       .  A
C202        C210   1.385       .  A
C202        C833   1.423   1_545  A
C203        C211   1.386       .  A
C203        C831   1.427       .  A
C204        C218   1.424       .  A
C204        C212   1.388       .  A
C205        C213   1.389       .  A
C205        C216   1.428       .  A
C206        C214   1.380       .  A
C206        C217   1.427       .  A
C207        C208   1.377       .  A
C207        H219   1.081       .  S
C208        H220   1.082       .  S
C209        C210   1.375       .  A
C209        H221   1.082       .  S
C210        H222   1.082       .  S
C211        C212   1.371       .  A
C211        H223   1.080       .  S
C212        H224   1.082       .  S
C213        C214   1.374       .  A
C213        H225   1.080       .  S
C214        H226   1.076       .  S
C215        C230   1.516       .  S
C215        C819   1.421       .  A
C216        C249   1.496       .  S
C217        C234   1.519       .  S
C217        C818   1.422       .  A
C218        C246   1.495       .  S
C229        C230   1.356       .  D
C229        H847   1.086       .  S
C230        H232   1.086       .  S
H231        C845   1.086       .  S
C233        C234   1.354       .  D
C233        H235   1.086       .  S
C234        H852   1.086       .  S
H236        C850   1.086       .  S
C237        C238   1.358       .  D
C237       H1471   1.085       .  S
C238       C1379   1.519       .  S
C238        H856   1.086       .  S
H239       C1469   1.085   1_455  S
H240        C854   1.086       .  S
C241        C242   1.359       .  D
C241        H243   1.086       .  S
C242       C1381   1.519       .  S
C242       H2092   1.086       .  S
H244       C2090   1.086       .  S
C245        C246   1.347       .  D
C245        H247   1.087       .  S
C246        H248   1.087       .  S
C249        C250   1.345       .  D
C249        H251   1.086       .  S
C250        H252   1.087       .  S
C253        C254   1.342       .  D
C253        H563   1.087       .  S
C254        C491   1.485       .  S
C254        H256   1.087       .  S
H255        C561   1.087       .  S
C257        C258   1.346   1_556  D
C257        H259   1.087       .  S
C258        H568   1.087       .  S
H260        C566   1.087       .  S
C261        C262   1.336       .  D
C261        H263   1.087       .  S
C262        H264   1.088       .  S
C265        C266   1.337       .  D
C265        H267   1.087       .  S
C266        H268   1.087       .  S
C269       C1502   1.346       .  D
C269       H1503   1.087       .  S
C270       C1501   1.342   1_655  D
C270       H1504   1.086       .  S
H271       C1501   1.088       .  S
H272       C1502   1.086       .  S
C273        C274   1.348   1_655  D
C273       H1507   1.087       .  S
C274        H276   1.087       .  S
H275       C1505   1.087       .  S
C277        C278   1.342       .  D
C277        H279   1.087       .  S
C278        H280   1.087       .  S
C281        C282   1.344       .  D
C281        H283   1.087       .  S
C282        H284   1.087       .  S
C285        C286   1.346       .  D
C285        H287   1.087       .  S
C286        H596   1.087       .  S
H288        C594   1.086       .  S
C289       C1522   1.348   1_456  D
C289        H599   1.087       .  S
C290        C422   1.501       .  S
C290       C1521   1.347   1_554  D
C290        H292   1.086       .  S
H291        C597   1.088   1_455  S
C293        C602   1.341       .  D
C293        H295   1.087   1_556  S
C294        C601   1.346       .  D
C294        H296   1.087       .  S
C297        C606   1.340   1_556  D
C297        H299   1.087       .  S
C298        C605   1.339       .  D
C298        H300   1.087       .  S
C301       C1534   1.344       .  D
C301        H303   1.087       .  S
C302       C1533   1.340       .  D
C302        H304   1.087   1_655  S
C305       C1538   1.334       .  D
C305       H1539   1.087       .  S
C306       C1537   1.331       .  D
C306       H1540   1.088   1_455  S
H307       C1537   1.087       .  S
H308       C1538   1.087       .  S
O309        C325   1.275       .  A
O309       Zn315   2.013       .  S
C310        O326   1.277       .  A
C310       O1247   1.270   1_556  A
C310        C593   1.476   1_556  S
O311       Cd318   2.068       .  S
O312        C330   1.271       .  A
O312       Cd321   2.040       .  S
O313       Cd317   2.056       .  S
O314       C1557   1.273       .  A
O314       Cd317   2.027       .  S
Zn315       O326   2.047       .  S
Zn315       O328   2.013       .  S
Zn315       O320   1.947       .  S
O316        C327   1.276       .  A
O316       Cd321   2.079       .  S
Cd317       O319   2.073       .  S
Cd317      O1552   1.978       .  S
Cd318       O322   2.091       .  S
Cd318       O331   2.033       .  S
O320      Cd1549   1.979       .  S
O320      Cd1245   1.992   1_556  S
Cd321       O323   2.072       .  S
Cd321      O1244   1.997   1_455  S
O322       C1561   1.276       .  A
O323       C1234   1.274   1_455  A
C324        O328   1.272       .  A
C324        C602   1.476       .  S
C325       O1546   1.271       .  A
C325        C609   1.457       .  S
C327        C605   1.475       .  S
C329       O1554   1.278       .  A
C329        C597   1.476       .  S
C330       O1563   1.280   1_455  A
C330        C614   1.464       .  S
O331       C1562   1.270       .  A
O332        C348   1.275       .  A
O332       Zn338   2.024       .  S
C333        O349   1.272       .  A
C333       O1578   1.273   1_455  A
C333        C610   1.458       .  S
O334        C347   1.276       .  A
O334       Cd341   2.088       .  S
O335        C353   1.273       .  A
O335       Cd344   2.069       .  S
O336        C350   1.272       .  A
O336       Cd340   2.067       .  S
O337       C1580   1.274       .  A
O337       Cd340   2.073       .  S
Zn338       O349   1.995       .  S
Zn338       O351   2.020       .  S
Zn338       O343   1.941       .  S
O339        C350   1.273       .  A
O339       Cd344   2.070       .  S
Cd340       O342   2.032       .  S
Cd340      O1575   1.975       .  S
Cd341       O345   2.075       .  S
Cd341       O354   2.067       .  S
Cd341       O343   2.002       .  S
O342        C352   1.274       .  A
O343      Cd1572   1.986   1_455  S
O343      Cd1576   2.000   1_455  S
Cd344       O346   2.014       .  S
Cd344      O1575   1.989       .  S
O345       C1584   1.278       .  A
O346       C1565   1.271       .  A
C347        O351   1.273       .  A
C347        C589   1.474       .  S
C348       O1569   1.270   1_455  A
C348        C581   1.471       .  S
C350        C586   1.470       .  S
C352       O1577   1.270       .  A
C352        C613   1.456       .  S
C353       O1586   1.270       .  A
C353        C577   1.470       .  S
O354       C1585   1.273       .  A
O355        C371   1.273       .  A
O355       Zn361   2.017       .  S
C356        O372   1.273       .  A
C356        O369   1.269       .  A
C356        C573   1.449       .  S
O357       Cd364   2.083       .  S
O358       Cd367   2.066       .  S
O359        C373   1.277   1_556  A
O359       Cd363   2.088       .  S
O360       Cd363   2.082       .  S
Zn361       O372   1.980       .  S
Zn361       O374   2.022       .  S
Zn361       O366   1.927       .  S
O362       Cd367   2.043       .  S
Cd363       O365   2.055       .  S
Cd364       O368   2.059       .  S
Cd364       O377   2.078       .  S
O365        C375   1.276       .  A
O366       Cd367   1.988       .  S
Cd367       O369   2.034       .  S
O368        C375   1.273       .  A
C370        O374   1.273       .  A
C370        C601   1.478       .  S
C371        C565   1.488       .  S
C373        C606   1.475       .  S
C375        C569   1.461       .  S
C376        O377   1.276   1_554  A
C376        C561   1.475       .  S
O378        C394   1.275       .  A
O378       Zn384   2.031       .  S
C379        O395   1.272       .  A
C379        O392   1.277       .  A
C379        C570   1.458       .  S
O380        C393   1.272       .  A
O380       Cd387   2.054       .  S
O381        C399   1.278       .  A
O381       Cd390   2.087       .  S
O382        C396   1.273       .  A
O382       Cd386   2.060       .  S
O383        C394   1.271       .  A
O383       Cd386   2.059       .  S
Zn384       O395   1.988       .  S
Zn384       O397   2.032       .  S
Zn384       O389   1.937       .  S
O385        C396   1.277       .  A
O385       Cd390   2.097       .  S
Cd386       O388   2.036       .  S
Cd386       O389   1.988       .  S
Cd387       O391   2.036       .  S
Cd387       O400   2.076       .  S
Cd387       O389   1.987       .  S
O388        C398   1.272       .  A
O389       Cd390   1.996       .  S
Cd390       O392   2.066       .  S
O391        C398   1.270       .  A
C393        O397   1.274       .  A
C393        C585   1.473       .  S
C394        C558   1.475       .  S
C396        C590   1.480       .  S
C398        C574   1.448       .  S
C399        O400   1.274       .  A
C399        C553   1.483       .  S
N401        C406   1.354       .  A
N401        C405   1.362       .  A
N401        H433   1.041       .  S
N402        C409   1.357       .  A
N402        C410   1.350       .  A
N403        C408   1.361       .  A
N403        C407   1.356       .  A
N403        H434   1.041       .  S
N404        C411   1.353       .  A
N404        C412   1.359       .  A
C405        C413   1.382       .  A
C405        C421   1.419       .  A
C406        C422   1.424   1_556  A
C406        C414   1.389       .  A
C407        C415   1.387       .  A
C408       C1039   1.424   1_545  A
C408        C416   1.385       .  A
C409       C1037   1.417   1_545  A
C409        C417   1.383       .  A
C410        C424   1.416   1_556  A
C410        C418   1.389       .  A
C411        C419   1.388       .  A
C412        C420   1.385       .  A
C412        C423   1.420       .  A
C413        C414   1.375       .  A
C413        H425   1.079       .  S
C414        H426   1.082       .  S
C415        C416   1.378       .  A
C415        H427   1.082       .  S
C416        H428   1.079       .  S
C417        C418   1.372       .  A
C417        H429   1.080       .  S
C418        H430   1.081       .  S
C419        C420   1.372       .  A
C419        H431   1.082       .  S
C420        H432   1.082       .  S
C421        C545   1.515       .  S
C421       C1025   1.417       .  A
C423        C549   1.519       .  S
C423       C1024   1.422       .  A
C424        C594   1.488       .  S
N435        C440   1.353       .  A
N435        C439   1.362       .  A
N435        H467   1.041       .  S
N436        C443   1.358       .  A
N436        C444   1.353       .  A
N437        C442   1.361       .  A
N437        C441   1.355       .  A
N437        H468   1.036   1_655  S
N438        C445   1.351       .  A
N438        C446   1.358       .  A
C439        C447   1.384   1_455  A
C439        C455   1.424       .  A
C440        C456   1.417       .  A
C440        C448   1.387   1_455  A
C441        C449   1.388       .  A
C441        C458   1.422       .  A
C442       C1073   1.422       .  A
C442        C450   1.385       .  A
C443       C1071   1.419       .  A
C443        C451   1.385   1_655  A
C444        C458   1.417       .  A
C444        C452   1.387   1_655  A
C445        C453   1.388       .  A
C445        C456   1.419       .  A
C446        C454   1.384       .  A
C446        C457   1.418       .  A
C447        C448   1.375       .  A
C447        H459   1.076       .  S
C448        H460   1.082       .  S
C449        C450   1.375       .  A
C449        H461   1.082       .  S
C450        H462   1.079       .  S
C451        C452   1.370       .  A
C451        H463   1.079       .  S
C452        H464   1.082       .  S
C453        C454   1.374       .  A
C453        H465   1.082       .  S
C454        H466   1.082       .  S
C455       C1778   1.514   1_455  S
C455       C1059   1.417       .  A
C456        C582   1.487       .  S
C457       C1782   1.511       .  S
C457       C1058   1.420   1_455  A
C458        C578   1.492       .  S
N469        C474   1.357       .  A
N469        C473   1.353       .  A
N469        H501   1.039       .  S
N470        C477   1.356       .  A
N470        C478   1.360       .  A
N471        C476   1.352       .  A
N471        C475   1.359       .  A
N471        H502   1.040       .  S
N472        C479   1.357       .  A
N472        C480   1.352       .  A
C473        C481   1.388       .  A
C474        C490   1.413       .  A
C474        C482   1.384       .  A
C475        C483   1.388       .  A
C475       C1108   1.422   1_545  A
C476        C491   1.418       .  A
C476        C484   1.387       .  A
C477        C489   1.425       .  A
C477        C485   1.389       .  A
C478        C492   1.422       .  A
C478        C486   1.383       .  A
C479        C487   1.383       .  A
C479       C1106   1.415   1_545  A
C480        C488   1.388       .  A
C481        C482   1.375       .  A
C481        H493   1.082       .  S
C482        H494   1.080       .  S
C483        C484   1.377       .  A
C483        H495   1.082       .  S
C484        H496   1.082       .  S
C485        C486   1.374       .  A
C485        H497   1.082       .  S
C486        H498   1.081       .  S
C487        C488   1.371       .  A
C487        H499   1.080       .  S
C488        H500   1.082       .  S
C489        C566   1.501       .  S
C490        C537   1.504       .  S
C490       C1095   1.417       .  A
C492        C541   1.509       .  S
C492       C1091   1.423       .  A
N503        C508   1.353       .  A
N503        C507   1.362       .  A
N503        H535   1.035       .  S
N504        C511   1.359       .  A
N504        C512   1.355       .  A
N505        C510   1.361       .  A
N505        C509   1.358       .  A
N505        H536   1.037       .  S
N506        C513   1.353       .  A
N506        C514   1.360       .  A
C507        C515   1.385       .  A
C507        C523   1.423       .  A
C508        C524   1.421       .  A
C508        C516   1.388       .  A
C509        C517   1.390       .  A
C509        C526   1.429       .  A
C510       C1141   1.425   1_545  A
C510        C518   1.385       .  A
C511       C1139   1.423   1_545  A
C511        C519   1.385       .  A
C512        C526   1.424       .  A
C512        C520   1.388       .  A
C513        C521   1.387       .  A
C513        C524   1.423       .  A
C514        C522   1.385       .  A
C514        C525   1.422       .  A
C515        C516   1.374       .  A
C515        H527   1.077       .  S
C516        H528   1.082       .  S
C517        C518   1.375       .  A
C517        H529   1.081       .  S
C518        H530   1.082       .  S
C519        C520   1.368       .  A
C519        H531   1.079       .  S
C520        H532   1.082       .  S
C521        C522   1.374       .  A
C521        H533   1.082       .  S
C522        H534   1.079       .  S
C523        C538   1.510       .  S
C523       C1127   1.417       .  A
C524        C557   1.489       .  S
C525        C542   1.514       .  S
C525       C1126   1.424       .  A
C526        C554   1.497       .  S
C537        C538   1.350       .  D
C537       H1155   1.085       .  S
C538        H540   1.086       .  S
H539       C1153   1.086       .  S
C541        C542   1.353       .  D
C541        H543   1.086       .  S
C542       H1160   1.086       .  S
H544       C1158   1.085       .  S
C545        C546   1.357       .  D
C545       H1779   1.086       .  S
C546       C1687   1.520       .  S
C546       H1164   1.086       .  S
H547       C1777   1.086       .  S
H548       C1162   1.086       .  S
C549        C550   1.356       .  D
C549        H551   1.086       .  S
C550       C1689   1.514       .  S
C550       H2400   1.085       .  S
H552       C2398   1.086   1_455  S
C553        C554   1.345       .  D
C553        H555   1.087       .  S
C554        H556   1.087       .  S
C557        C558   1.342       .  D
C557        H559   1.087       .  S
C558        H560   1.087       .  S
C561        C562   1.342       .  D
C562        H564   1.087   1_554  S
C565        C566   1.352       .  D
C565        H567   1.086       .  S
C569        C570   1.336       .  D
C569        H571   1.087       .  S
C570        H572   1.088       .  S
C573        C574   1.334       .  D
C573        H575   1.087       .  S
C574        H576   1.088       .  S
C577       C1810   1.342       .  D
C577       H1811   1.088       .  S
C578       C1809   1.343   1_655  D
C578       H1812   1.087       .  S
H579       C1809   1.087       .  S
H580       C1810   1.087       .  S
C581        C582   1.342       .  D
C581       H1815   1.087   1_455  S
C582        H584   1.087       .  S
H583       C1813   1.087       .  S
C585        C586   1.342       .  D
C585        H587   1.087       .  S
C586        H588   1.087       .  S
C589        C590   1.345       .  D
C589        H591   1.087       .  S
C590        H592   1.087       .  S
C593        C594   1.342       .  D
C593        H595   1.087       .  S
C597       C1830   1.342       .  D
C598       C1829   1.341       .  D
C598        H600   1.087       .  S
C601        H603   1.087       .  S
C602        H604   1.087       .  S
C605        H607   1.087       .  S
C606        H608   1.087       .  S
C609       C1842   1.344       .  D
C609        H611   1.087       .  S
C610       C1841   1.341       .  D
C610        H612   1.087       .  S
C613       C1846   1.337       .  D
C613       H1847   1.087       .  S
C614       C1845   1.335   1_455  D
C614       H1848   1.087       .  S
H615       C1845   1.087       .  S
H616       C1846   1.087       .  S
O617        C633   1.271       .  A
O617       Zn623   1.989       .  S
C618        O634   1.273       .  A
C618       O2171   1.273       .  A
C618        C901   1.475       .  S
O619        C940   1.277   1_554  A
O619       Cd626   2.090       .  S
O620        C638   1.273       .  A
O620       Cd629   2.041       .  S
O621        C943   1.275       .  A
O621       Cd625   2.073       .  S
O622       C1865   1.272   1_455  A
O622       Cd625   2.034       .  S
Zn623       O634   2.026       .  S
Zn623       O636   2.016       .  S
Zn623       O628   1.944       .  S
O624        C635   1.275   1_554  A
O624       Cd629   2.073       .  S
Cd625       O627   2.066       .  S
Cd625      O1860   1.989   1_455  S
Cd626       O630   2.088       .  S
Cd626       O639   2.038       .  S
Cd626       O936   1.998   1_554  S
O627        C945   1.273   1_455  A
O628      Cd1857   1.985       .  S
O628       Cd934   2.004       .  S
O628      Cd2169   1.997       .  S
Cd629       O631   2.062       .  S
Cd629      O2168   1.989   1_554  S
O630       C1869   1.275   1_554  A
O631       C2158   1.272       .  A
C632        O927   1.278       .  A
C632        O636   1.273       .  A
C632        C910   1.481       .  S
C633       O1854   1.271       .  A
C633        C917   1.453       .  S
C635        O929   1.272       .  A
C635        C913   1.476       .  S
C637        O935   1.272       .  A
C637       O1862   1.271   1_456  A
C637        C905   1.475       .  S
C638       O1871   1.268   1_455  A
C638        C922   1.447       .  S
O639       C1870   1.275       .  A
O640        C656   1.276       .  A
O640       Zn646   2.033       .  S
C641        O657   1.273       .  A
C641       O1886   1.273   1_455  A
C641        C918   1.456       .  S
O642        C655   1.273       .  A
O642       Cd649   2.059       .  S
O643        C661   1.275       .  A
O643       Cd652   2.077       .  S
O644        C658   1.270       .  A
O644       Cd648   2.060       .  S
O645       C1888   1.270       .  A
O645       Cd648   2.048       .  S
Zn646       O657   1.999       .  S
Zn646       O659   2.030       .  S
Zn646       O651   1.943       .  S
O647        C658   1.273       .  A
O647       Cd652   2.071       .  S
Cd648       O650   2.015       .  S
Cd648      O1883   1.989       .  S
Cd649       O653   2.041       .  S
Cd649       O662   2.057       .  S
Cd649       O651   1.998       .  S
O650        C660   1.266       .  A
O651      Cd1880   1.978   1_455  S
O651      Cd1884   1.982   1_455  S
Cd652       O654   2.021       .  S
Cd652      O1883   1.991       .  S
O653       C1892   1.270       .  A
O654       C1873   1.272       .  A
C655        O659   1.274       .  A
C655        C897   1.473       .  S
C656       O1877   1.273   1_455  A
C656        C889   1.482       .  S
C658        C894   1.468       .  S
C660       O1885   1.274       .  A
C660        C921   1.449       .  S
C661       O1894   1.276       .  A
C661        C885   1.483       .  S
O662       C1893   1.271       .  A
O663        C679   1.273       .  A
O663       Zn669   2.009       .  S
C664        O680   1.267       .  A
C664        O677   1.272       .  A
C664        C881   1.446       .  S
O665        C986   1.276       .  A
O665       Cd672   2.076       .  S
O666        C992   1.273       .  A
O666       Cd675   2.065       .  S
O667        C681   1.273       .  A
O667       Cd671   2.071       .  S
O668        C987   1.271       .  A
O668       Cd671   2.065       .  S
Zn669       O680   1.967       .  S
Zn669       O682   2.004       .  S
Zn669       O674   1.939       .  S
O670        C989   1.271       .  A
O670       Cd675   2.060       .  S
Cd671       O673   2.038       .  S
Cd671       O982   1.991       .  S
Cd672       O676   2.037       .  S
Cd672       O685   2.079       .  S
Cd672       O982   1.993       .  S
O673        C683   1.273       .  A
O674       Cd979   1.998   1_554  S
O674       Cd980   2.000   1_554  S
O674       Cd675   1.989       .  S
Cd675       O677   2.038       .  S
O676        C683   1.269       .  A
C678        O973   1.277   1_554  A
C678        O682   1.270       .  A
C678        C909   1.478       .  S
C679        O976   1.276   1_554  A
C679        C873   1.480       .  S
C681        O978   1.274       .  A
C681        C914   1.476       .  S
C683        C877   1.446       .  S
C684        O974   1.275       .  A
C684        O685   1.276       .  A
C684        C869   1.483       .  S
O686        C702   1.276       .  A
O686       Zn692   2.028       .  S
C687        O703   1.272       .  A
C687        O700   1.274       .  A
C687        C878   1.452       .  S
O688        C701   1.273       .  A
O688       Cd695   2.060       .  S
O689        C707   1.273       .  A
O689       Cd698   2.048       .  S
O690        C704   1.272       .  A
O690       Cd694   2.058       .  S
O691        C702   1.271       .  A
O691       Cd694   2.048       .  S
Zn692       O703   1.989       .  S
Zn692       O705   2.027       .  S
Zn692       O697   1.922       .  S
O693        C704   1.273       .  A
O693       Cd698   2.077       .  S
Cd694       O696   2.040       .  S
Cd694       O697   1.978       .  S
Cd695       O699   2.033       .  S
Cd695       O708   2.073       .  S
Cd695       O697   1.974       .  S
O696        C706   1.270       .  A
O697       Cd698   1.971       .  S
Cd698       O700   2.031       .  S
O699        C706   1.274       .  A
C701        O705   1.274       .  A
C701        C893   1.471       .  S
C702        C866   1.469       .  S
C704        C898   1.473       .  S
C706        C882   1.449       .  S
C707        O708   1.273       .  A
C707        C861   1.470       .  S
N709        C714   1.358       .  A
N709        C713   1.362       .  A
N709        H741   1.040       .  S
N710        C717   1.357       .  A
N710        C718   1.350       .  A
N711        C716   1.362       .  A
N711        C715   1.354       .  A
N711        H742   1.040       .  S
N712        C719   1.356       .  A
N712        C720   1.360       .  A
C713        C721   1.385       .  A
C713        C729   1.425       .  A
C714        C730   1.427       .  A
C714        C722   1.388       .  A
C715        C723   1.388       .  A
C715       C1040   1.422   1_554  A
C716        C724   1.386       .  A
C717        C725   1.384       .  A
C718        C732   1.415       .  A
C718        C726   1.387       .  A
C719        C727   1.387       .  A
C719       C1038   1.422       .  A
C720        C728   1.387       .  A
C720        C731   1.425       .  A
C721        C722   1.378       .  A
C721        H733   1.079       .  S
C722        H734   1.082       .  S
C723        C724   1.379       .  A
C723        H735   1.082       .  S
C724        H736   1.081       .  S
C725        C726   1.374       .  A
C725        H737   1.081       .  S
C726        H738   1.082       .  S
C727        C728   1.373       .  A
C727        H739   1.082       .  S
C728        H740   1.082       .  S
C729        C853   1.517       .  S
C730       C1214   1.503       .  S
C730       C1027   1.420       .  A
C731        C857   1.523       .  S
C732        C902   1.486       .  S
C732       C1023   1.419       .  A
N743        C748   1.354       .  A
N743        C747   1.364       .  A
N743        H775   1.040   1_655  S
N744        C751   1.359       .  A
N744        C752   1.353       .  A
N745        C750   1.362       .  A
N745        C749   1.354       .  A
N745        H776   1.038   1_655  S
N746        C753   1.355       .  A
N746        C754   1.361       .  A
C747        C755   1.385       .  A
C747        C763   1.426   1_565  A
C748        C764   1.423   1_655  A
C748        C756   1.389       .  A
C749        C757   1.389       .  A
C749        C766   1.423       .  A
C750        C758   1.385       .  A
C751        C759   1.386       .  A
C752        C766   1.418       .  A
C752        C760   1.387   1_655  A
C753        C761   1.388       .  A
C753        C764   1.425       .  A
C754        C762   1.383       .  A
C754        C765   1.425   1_565  A
C755        C756   1.377       .  A
C755        H767   1.080       .  S
C756        H768   1.082       .  S
C757        C758   1.377       .  A
C757        H769   1.082       .  S
C758        H770   1.081       .  S
C759        C760   1.371   1_655  A
C759        H771   1.081   1_655  S
C760        H772   1.082       .  S
C761        C762   1.377       .  A
C761        H773   1.082       .  S
C762        H774   1.080       .  S
C763       C2086   1.520       .  S
C764        C890   1.494       .  S
C765       C2090   1.520       .  S
C766        C886   1.489       .  S
N777        C782   1.360       .  A
N777        C781   1.354       .  A
N777        H809   1.041       .  S
N778        C785   1.352       .  A
N778        C786   1.358       .  A
N779        C784   1.357       .  A
N779        C783   1.363       .  A
N779        H810   1.039       .  S
N780        C787   1.360       .  A
N780        C788   1.356       .  A
C781        C789   1.388       .  A
C781       C1105   1.422       .  A
C782        C798   1.420       .  A
C782        C790   1.384       .  A
C783        C791   1.385       .  A
C784        C799   1.429       .  A
C784        C792   1.389       .  A
C785        C797   1.419       .  A
C785        C793   1.387       .  A
C786        C800   1.421       .  A
C786        C794   1.385       .  A
C787        C795   1.383       .  A
C788        C796   1.387       .  A
C788       C1107   1.421       .  A
C789        C790   1.376       .  A
C789        H801   1.082       .  S
C790        H802   1.078       .  S
C791        C792   1.380       .  A
C791        H803   1.081       .  S
C792        H804   1.082       .  S
C793        C794   1.376       .  A
C793        H805   1.082       .  S
C794        H806   1.079       .  S
C795        C796   1.372       .  A
C795        H807   1.079       .  S
C796        H808   1.082       .  S
C797        C874   1.494       .  S
C797       C1089   1.423   1_554  A
C798        C845   1.513       .  S
C799       C1178   1.498       .  S
C799       C1096   1.422   1_554  A
C800        C849   1.510       .  S
N811        C816   1.355       .  A
N811        C815   1.363       .  A
N811        H843   1.034       .  S
N812        C819   1.358       .  A
N812        C820   1.354       .  A
N813        C818   1.360       .  A
N813        C817   1.353       .  A
N813        H844   1.035       .  S
N814        C821   1.352       .  A
N814        C822   1.357       .  A
C815        C823   1.385       .  A
C815        C831   1.427   1_565  A
C816        C832   1.421       .  A
C816        C824   1.387       .  A
C817        C825   1.391       .  A
C817        C834   1.424       .  A
C818        C826   1.385       .  A
C819        C827   1.385       .  A
C820        C834   1.422       .  A
C820        C828   1.389       .  A
C821        C829   1.389       .  A
C821        C832   1.422       .  A
C822        C830   1.384       .  A
C822        C833   1.418       .  A
C823        C824   1.370       .  A
C823        H835   1.077       .  S
C824        H836   1.082       .  S
C825        C826   1.372       .  A
C825        H837   1.080       .  S
C826        H838   1.081       .  S
C827        C828   1.368       .  A
C827        H839   1.078       .  S
C828        H840   1.082       .  S
C829        C830   1.372       .  A
C829        H841   1.082       .  S
C830        H842   1.080       .  S
C831        C846   1.518       .  S
C832        C865   1.485       .  S
C833        C850   1.509       .  S
C834        C862   1.484       .  S
C845        C846   1.358   1_565  D
C846        H848   1.086       .  S
C849        C850   1.352       .  D
C849        H851   1.086       .  S
C853        C854   1.360   1_565  D
C853       H2087   1.085       .  S
C854       C1995   1.524       .  S
H855       C2085   1.085   1_455  S
C857        C858   1.358   1_565  D
C857        H859   1.086       .  S
C858       C1997   1.518       .  S
C858       H1476   1.085       .  S
H860       C1474   1.086       .  S
C861        C862   1.342       .  D
C861        H863   1.087       .  S
C862        H864   1.087       .  S
C865        C866   1.340       .  D
C865        H867   1.086       .  S
C866        H868   1.088       .  S
C869        C870   1.347       .  D
C869       H1179   1.087       .  S
C870       C1107   1.496       .  S
C870        H872   1.087       .  S
H871       C1177   1.087       .  S
C873        C874   1.348       .  D
C873        H875   1.087   1_554  S
C874       H1184   1.087       .  S
H876       C1182   1.087       .  S
C877        C878   1.334       .  D
C877        H879   1.087       .  S
C878        H880   1.088       .  S
C881        C882   1.331       .  D
C881        H883   1.088       .  S
C882        H884   1.087       .  S
C885       C2118   1.347       .  D
C885       H2119   1.087       .  S
C886       C2117   1.342   1_655  D
C886       H2120   1.087       .  S
H887       C2117   1.087       .  S
H888       C2118   1.087       .  S
C889        C890   1.345       .  D
C889       H2123   1.087   1_455  S
C890        H892   1.087       .  S
H891       C2121   1.087       .  S
C893        C894   1.341       .  D
C893        H895   1.087       .  S
C894        H896   1.087       .  S
C897        C898   1.344       .  D
C897        H899   1.087       .  S
C898        H900   1.087       .  S
C901        C902   1.345       .  D
C901        H903   1.087       .  S
C902       H1212   1.087       .  S
H904       C1210   1.086       .  S
C905       C2138   1.346   1_456  D
C905       H1215   1.087       .  S
C906       C1038   1.499       .  S
C906       C2137   1.346   1_554  D
C906        H908   1.086       .  S
H907       C1213   1.087   1_455  S
C909       C1218   1.341   1_554  D
C909        H911   1.087       .  S
C910       C1217   1.346       .  D
C910        H912   1.087       .  S
C913       C1222   1.343   1_556  D
C913        H915   1.087       .  S
C914       C1221   1.344       .  D
C914        H916   1.087       .  S
C917       C2150   1.339       .  D
C917        H919   1.087       .  S
C918       C2149   1.339   1_455  D
C918        H920   1.087       .  S
C921       C2154   1.333       .  D
C921       H2155   1.088       .  S
C922       C2153   1.336       .  D
C922       H2156   1.088   1_455  S
H923       C2153   1.087       .  S
H924       C2154   1.087       .  S
O925        C941   1.271       .  A
O925       Zn931   1.991       .  S
C926        O942   1.274       .  A
C926       O1863   1.272   1_556  A
C926       C1209   1.475   1_556  S
O927       Cd934   2.094       .  S
O928        C946   1.271   1_455  A
O928       Cd937   2.034       .  S
O929       Cd933   2.063       .  S
O930       C2173   1.273   1_455  A
O930       Cd933   2.022       .  S
Zn931       O942   2.017       .  S
Zn931       O944   2.000       .  S
Zn931       O936   1.938       .  S
O932        C943   1.271       .  A
O932       Cd937   2.062       .  S
Cd933       O935   2.074       .  S
Cd933      O2168   1.982       .  S
Cd934       O938   2.117       .  S
Cd934       O947   2.052       .  S
O936      Cd2165   1.979       .  S
O936      Cd1861   1.996   1_556  S
Cd937       O939   2.061       .  S
Cd937      O1860   1.988   1_455  S
O938       C2177   1.280       .  A
O939       C1850   1.273   1_455  A
C940        O944   1.270       .  A
C940       C1218   1.476       .  S
C941       O2162   1.274       .  A
C941       C1225   1.458       .  S
C943       C1221   1.475       .  S
C945       O2170   1.279       .  A
C945       C1213   1.482       .  S
C946       O2179   1.277       .  A
C946       C1230   1.459       .  S
O947       C2178   1.277       .  A
O948        C964   1.276   1_455  A
O948       Zn954   2.034       .  S
C949        O965   1.274   1_655  A
C949       O2194   1.273       .  A
C949       C1226   1.458       .  S
O950        C963   1.275       .  A
O950       Cd957   2.079       .  S
O951        C969   1.277       .  A
O951       Cd960   2.086       .  S
O952        C966   1.273       .  A
O952       Cd956   2.064       .  S
O953       C2196   1.273       .  A
O953       Cd956   2.076       .  S
Zn954       O965   2.001       .  S
Zn954       O967   2.038       .  S
Zn954       O959   1.940   1_455  S
O955        C966   1.275       .  A
O955       Cd960   2.083       .  S
Cd956       O958   2.035       .  S
Cd956      O2191   1.990       .  S
Cd957       O961   2.048       .  S
Cd957       O970   2.064       .  S
Cd957       O959   1.991   1_455  S
O958        C968   1.270       .  A
O959      Cd2188   2.000       .  S
O959      Cd2192   1.996       .  S
Cd960       O962   2.046       .  S
Cd960      O2191   1.999       .  S
O961       C2200   1.276   1_455  A
O962       C2181   1.274       .  A
C963        O967   1.275       .  A
C963       C1205   1.481       .  S
C964       O2185   1.271       .  A
C964       C1197   1.477       .  S
C966       C1202   1.471       .  S
C968       O2193   1.275       .  A
C968       C1229   1.457       .  S
C969       O2202   1.275       .  A
C969       C1193   1.483       .  S
O970       C2201   1.271   1_455  A
O971        C987   1.274       .  A
O971       Zn977   2.032       .  S
C972        O988   1.276       .  A
C972        O985   1.271       .  A
C972       C1189   1.458       .  S
O973       Cd980   2.085       .  S
O974       Cd983   2.085       .  S
O975        C989   1.276   1_556  A
O975       Cd979   2.077       .  S
O976       Cd979   2.091       .  S
Zn977       O988   1.999       .  S
Zn977       O990   2.034       .  S
Zn977       O982   1.941       .  S
O978       Cd983   2.064       .  S
Cd979       O981   2.054       .  S
Cd980       O984   2.066       .  S
Cd980       O993   2.101       .  S
O981        C991   1.275       .  A
O982       Cd983   1.994       .  S
Cd983       O985   2.040       .  S
O984        C991   1.275       .  A
C986        O990   1.275       .  A
C986       C1217   1.483       .  S
C987       C1181   1.478       .  S
C989       C1222   1.475       .  S
C991       C1185   1.461       .  S
C992        O993   1.279   1_554  A
C992       C1177   1.483       .  S
O994       C1010   1.278       .  A
O994      Zn1000   2.046       .  S
C995       O1011   1.275       .  A
C995       O1008   1.274       .  A
C995       C1186   1.459       .  S
O996       C1009   1.270       .  A
O996      Cd1003   2.052       .  S
O997       C1015   1.277       .  A
O997      Cd1006   2.080       .  S
O998       C1012   1.275       .  A
O998      Cd1002   2.084       .  S
O999       C1010   1.272       .  A
O999      Cd1002   2.058       .  S
Zn1000     O1011   2.000       .  S
Zn1000     O1013   2.042       .  S
Zn1000     O1005   1.946       .  S
O1001      C1012   1.275       .  A
O1001     Cd1006   2.088       .  S
Cd1002     O1004   2.064       .  S
Cd1002     O1005   1.997       .  S
Cd1003     O1007   2.024       .  S
Cd1003     O1016   2.061       .  S
Cd1003     O1005   1.986       .  S
O1004      C1014   1.275       .  A
O1005     Cd1006   1.999       .  S
Cd1006     O1008   2.064       .  S
O1007      C1014   1.268       .  A
C1009      O1013   1.273       .  A
C1009      C1201   1.476       .  S
C1010      C1174   1.476       .  S
C1012      C1206   1.481       .  S
C1014      C1190   1.450       .  S
C1015      O1016   1.272       .  A
C1015      C1169   1.475       .  S
N1017      C1022   1.353       .  A
N1017      C1021   1.361       .  A
N1017      H1049   1.040       .  S
N1018      C1025   1.358       .  A
N1018      C1026   1.351       .  A
N1019      C1024   1.361       .  A
N1019      C1023   1.354       .  A
N1019      H1050   1.041       .  S
N1020      C1027   1.355       .  A
N1020      C1028   1.358       .  A
C1021      C1029   1.383       .  A
C1021      C1037   1.418       .  A
C1022      C1038   1.423   1_556  A
C1022      C1030   1.389       .  A
C1023      C1031   1.388       .  A
C1024      C1032   1.383       .  A
C1025      C1033   1.383       .  A
C1026      C1040   1.415       .  A
C1026      C1034   1.388       .  A
C1027      C1035   1.387       .  A
C1028      C1036   1.386       .  A
C1028      C1039   1.421       .  A
C1029      C1030   1.374       .  A
C1029      H1041   1.080       .  S
C1030      H1042   1.082       .  S
C1031      C1032   1.375       .  A
C1031      H1043   1.082       .  S
C1032      H1044   1.078       .  S
C1033      C1034   1.373       .  A
C1033      H1045   1.080       .  S
C1034      H1046   1.082       .  S
C1035      C1036   1.372       .  A
C1035      H1047   1.082       .  S
C1036      H1048   1.081       .  S
C1037      C1161   1.513       .  S
C1039      C1165   1.516       .  S
C1040      C1210   1.482       .  S
N1051      C1056   1.353       .  A
N1051      C1055   1.361       .  A
N1051      H1083   1.037   1_655  S
N1052      C1059   1.357   1_655  A
N1052      C1060   1.352   1_655  A
N1053      C1058   1.360   1_455  A
N1053      C1057   1.354   1_455  A
N1053      H1084   1.039       .  S
N1054      C1061   1.353   1_655  A
N1054      C1062   1.358   1_655  A
C1055      C1063   1.385       .  A
C1055      C1071   1.422   1_565  A
C1056      C1072   1.417       .  A
C1056      C1064   1.387       .  A
C1057      C1065   1.388       .  A
C1057      C1074   1.421       .  A
C1058      C1066   1.385       .  A
C1059      C1067   1.385       .  A
C1060      C1074   1.416   1_455  A
C1060      C1068   1.388       .  A
C1061      C1069   1.388       .  A
C1061      C1072   1.420   1_455  A
C1062      C1070   1.384       .  A
C1062      C1073   1.419   1_465  A
C1063      C1064   1.376       .  A
C1063      H1075   1.080       .  S
C1064      H1076   1.083       .  S
C1065      C1066   1.375       .  A
C1065      H1077   1.082       .  S
C1066      H1078   1.079       .  S
C1067      C1068   1.370       .  A
C1067      H1079   1.080       .  S
C1068      H1080   1.082       .  S
C1069      C1070   1.374       .  A
C1069      H1081   1.082       .  S
C1070      H1082   1.081       .  S
C1071      C2394   1.513       .  S
C1072      C1198   1.489       .  S
C1073      C2398   1.513       .  S
C1074      C1194   1.489       .  S
N1085      C1090   1.359       .  A
N1085      C1089   1.355       .  A
N1085      H1117   1.041       .  S
N1086      C1093   1.352       .  A
N1086      C1094   1.358       .  A
N1087      C1092   1.355       .  A
N1087      C1091   1.360       .  A
N1087      H1118   1.037       .  S
N1088      C1095   1.360       .  A
N1088      C1096   1.353       .  A
C1089      C1097   1.390       .  A
C1090      C1106   1.416       .  A
C1090      C1098   1.383       .  A
C1091      C1099   1.386       .  A
C1092      C1107   1.423       .  A
C1092      C1100   1.388       .  A
C1093      C1105   1.417       .  A
C1093      C1101   1.386       .  A
C1094      C1108   1.421       .  A
C1094      C1102   1.384       .  A
C1095      C1103   1.383       .  A
C1096      C1104   1.390       .  A
C1097      C1098   1.374       .  A
C1097      H1109   1.081       .  S
C1098      H1110   1.079       .  S
C1099      C1100   1.378       .  A
C1099      H1111   1.082       .  S
C1100      H1112   1.082       .  S
C1101      C1102   1.373       .  A
C1101      H1113   1.082       .  S
C1102      H1114   1.074       .  S
C1103      C1104   1.374       .  A
C1103      H1115   1.082       .  S
C1104      H1116   1.082       .  S
C1105      C1182   1.493       .  S
C1106      C1153   1.509       .  S
C1108      C1157   1.510       .  S
N1119      C1124   1.356       .  A
N1119      C1123   1.361       .  A
N1119      H1151   1.038       .  S
N1120      C1127   1.358       .  A
N1120      C1128   1.351       .  A
N1121      C1126   1.362       .  A
N1121      C1125   1.355       .  A
N1121      H1152   1.034       .  S
N1122      C1129   1.355       .  A
N1122      C1130   1.358       .  A
C1123      C1131   1.385       .  A
C1123      C1139   1.424       .  A
C1124      C1140   1.419       .  A
C1124      C1132   1.387       .  A
C1125      C1133   1.388       .  A
C1125      C1142   1.423       .  A
C1126      C1134   1.387       .  A
C1127      C1135   1.385       .  A
C1128      C1142   1.417       .  A
C1128      C1136   1.389       .  A
C1129      C1137   1.387       .  A
C1129      C1140   1.423       .  A
C1130      C1138   1.384       .  A
C1130      C1141   1.421       .  A
C1131      C1132   1.371       .  A
C1131      H1143   1.078       .  S
C1132      H1144   1.082       .  S
C1133      C1134   1.377       .  A
C1133      H1145   1.082       .  S
C1134      H1146   1.082       .  S
C1135      C1136   1.372       .  A
C1135      H1147   1.082       .  S
C1136      H1148   1.082       .  S
C1137      C1138   1.369       .  A
C1137      H1149   1.082       .  S
C1138      H1150   1.077       .  S
C1139      C1154   1.513   1_565  S
C1140      C1173   1.494       .  S
C1141      C1158   1.507       .  S
C1142      C1170   1.486       .  S
C1153      C1154   1.355   1_565  D
C1154      H1156   1.086       .  S
C1157      C1158   1.350       .  D
C1157      H1159   1.086   1_565  S
C1161      C1162   1.356   1_565  D
C1161      H2395   1.086       .  S
C1162      C2303   1.516       .  S
H1163      C2393   1.086       .  S
C1165      C1166   1.355   1_565  D
C1165      H1167   1.086       .  S
C1166      C2305   1.512       .  S
C1166      H1784   1.086       .  S
H1168      C1782   1.085       .  S
C1169      C1170   1.341       .  D
C1169      H1171   1.087       .  S
C1170      H1172   1.087       .  S
C1173      C1174   1.343       .  D
C1173      H1175   1.086       .  S
C1174      H1176   1.087       .  S
C1177      C1178   1.344       .  D
C1178      H1180   1.087   1_554  S
C1181      C1182   1.345       .  D
C1181      H1183   1.087       .  S
C1185      C1186   1.338       .  D
C1185      H1187   1.087       .  S
C1186      H1188   1.087       .  S
C1189      C1190   1.332       .  D
C1189      H1191   1.088       .  S
C1190      H1192   1.087       .  S
C1193      C2426   1.346       .  D
C1193      H2427   1.087       .  S
C1194      C2425   1.342   1_655  D
C1194      H2428   1.087       .  S
H1195      C2425   1.087       .  S
H1196      C2426   1.087       .  S
C1197      C1198   1.343       .  D
C1197      H2431   1.087       .  S
C1198      H1200   1.087   1_655  S
H1199      C2429   1.087       .  S
C1201      C1202   1.343       .  D
C1201      H1203   1.086       .  S
C1202      H1204   1.087       .  S
C1205      C1206   1.346       .  D
C1205      H1207   1.087       .  S
C1206      H1208   1.087       .  S
C1209      C1210   1.341   1_554  D
C1209      H1211   1.087       .  S
C1213      C2446   1.345       .  D
C1214      C2445   1.345       .  D
C1214      H1216   1.086       .  S
C1217      H1219   1.086       .  S
C1218      H1220   1.087       .  S
C1221      H1223   1.087       .  S
C1222      H1224   1.087       .  S
C1225      C2458   1.336       .  D
C1225      H1227   1.087       .  S
C1226      C2457   1.343       .  D
C1226      H1228   1.087   1_655  S
C1229      C2462   1.337       .  D
C1229      H2463   1.087       .  S
C1230      C2461   1.338       .  D
C1230      H2464   1.087   1_655  S
H1231      C2461   1.087       .  S
H1232      C2462   1.087       .  S
O1233      C1249   1.270       .  A
O1233     Zn1239   1.990       .  S
C1234      O1250   1.271       .  A
C1234      C1517   1.475       .  S
O1235      C1556   1.274   1_554  A
O1235     Cd1242   2.062       .  S
O1236      C1254   1.269       .  A
O1236     Cd1245   2.027       .  S
O1237      C1559   1.268       .  A
O1237     Cd1241   2.039       .  S
O1238     Cd1241   2.012       .  S
Zn1239     O1250   2.012       .  S
Zn1239     O1252   1.996       .  S
Zn1239     O1244   1.938       .  S
O1240      C1251   1.273   1_554  A
O1240     Cd1245   2.061       .  S
Cd1241     O1243   2.041       .  S
Cd1242     O1246   2.063       .  S
Cd1242     O1255   2.011       .  S
Cd1242     O1552   1.989   1_654  S
O1243      C1561   1.268       .  A
O1244     Cd1550   2.007       .  S
Cd1245     O1247   2.060       .  S
C1248      O1543   1.281       .  A
C1248      O1252   1.271       .  A
C1248      C1526   1.480       .  S
C1249      C1533   1.452       .  S
C1251      O1545   1.270       .  A
C1251      C1529   1.473       .  S
C1253      O1551   1.272       .  A
C1253      C1521   1.480       .  S
C1254      C1538   1.453       .  S
O1256      C1272   1.280       .  A
O1256     Zn1262   2.060       .  S
C1257      O1273   1.275       .  A
C1257      C1534   1.458       .  S
O1258      C1271   1.271       .  A
O1258     Cd1265   2.058       .  S
O1259      C1277   1.275   1_655  A
O1259     Cd1268   2.086       .  S
O1260      C1274   1.277       .  A
O1260     Cd1264   2.100       .  S
O1261     Cd1264   2.090       .  S
Zn1262     O1273   2.016       .  S
Zn1262     O1275   2.059       .  S
Zn1262     O1267   1.957       .  S
O1263      C1274   1.272       .  A
O1263     Cd1268   2.058       .  S
Cd1264     O1266   2.052       .  S
Cd1265     O1269   2.041       .  S
Cd1265     O1278   2.064       .  S
Cd1265     O1267   1.985       .  S
O1266      C1276   1.278   1_655  A
Cd1268     O1270   2.012       .  S
C1271      O1275   1.279       .  A
C1271      C1513   1.481       .  S
C1272      C1505   1.479       .  S
C1274      C1510   1.478       .  S
C1276      C1537   1.455       .  S
C1277      C1501   1.475       .  S
O1279      C1295   1.274   1_554  A
O1279     Zn1285   2.012       .  S
C1280      O1296   1.270       .  A
C1280      O1293   1.273       .  A
C1280      C1497   1.453       .  S
O1281      C1602   1.279       .  A
O1281     Cd1288   2.092       .  S
O1282      C1608   1.274       .  A
O1282     Cd1291   2.072       .  S
O1283      C1297   1.278       .  A
O1283     Cd1287   2.080       .  S
O1284      C1603   1.278       .  A
O1284     Cd1287   2.106       .  S
Zn1285     O1296   1.992       .  S
Zn1285     O1298   2.004       .  S
Zn1285     O1290   1.937       .  S
O1286      C1605   1.271       .  A
O1286     Cd1291   2.059       .  S
Cd1287     O1289   2.057       .  S
Cd1287     O1598   1.999       .  S
Cd1288     O1292   2.060       .  S
Cd1288     O1301   2.090       .  S
Cd1288     O1598   1.996       .  S
O1289      C1299   1.273       .  A
O1290     Cd1595   1.996   1_554  S
O1290     Cd1596   2.002   1_554  S
O1290     Cd1291   1.988       .  S
Cd1291     O1293   2.048       .  S
O1292      C1299   1.277       .  A
C1294      O1589   1.276   1_554  A
C1294      O1298   1.271       .  A
C1294      C1525   1.475       .  S
C1295      O1592   1.272       .  A
C1295      C1489   1.477       .  S
C1297      O1594   1.273       .  A
C1297      C1530   1.482       .  S
C1299      C1493   1.462       .  S
C1300      O1590   1.274       .  A
C1300      O1301   1.277       .  A
C1300      C1485   1.482       .  S
O1302      C1318   1.276       .  A
O1302     Zn1308   2.040       .  S
C1303      O1319   1.272       .  A
C1303      O1316   1.277       .  A
C1303      C1494   1.459       .  S
O1304      C1317   1.272       .  A
O1304     Cd1311   2.066       .  S
O1305      C1323   1.278       .  A
O1305     Cd1314   2.086       .  S
O1306      C1320   1.272       .  A
O1306     Cd1310   2.067       .  S
O1307      C1318   1.273       .  A
O1307     Cd1310   2.055       .  S
Zn1308     O1319   1.991       .  S
Zn1308     O1321   2.040       .  S
Zn1308     O1313   1.935       .  S
O1309      C1320   1.278       .  A
O1309     Cd1314   2.102       .  S
Cd1310     O1312   2.056       .  S
Cd1310     O1313   1.986       .  S
Cd1311     O1315   2.033       .  S
Cd1311     O1324   2.067       .  S
Cd1311     O1313   1.985       .  S
O1312      C1322   1.272       .  A
O1313     Cd1314   2.002       .  S
Cd1314     O1316   2.070       .  S
O1315      C1322   1.272       .  A
C1317      O1321   1.275       .  A
C1317      C1509   1.477       .  S
C1318      C1482   1.469       .  S
C1320      C1514   1.479       .  S
C1322      C1498   1.455       .  S
C1323      O1324   1.274       .  A
C1323      C1477   1.476       .  S
N1325      C1330   1.354       .  A
N1325      C1329   1.363       .  A
N1325      H1357   1.040       .  S
N1326      C1333   1.359       .  A
N1326      C1334   1.353   1_655  A
N1327      C1332   1.364   1_455  A
N1327      C1331   1.356   1_455  A
N1327      H1358   1.040       .  S
N1328      C1335   1.357       .  A
N1328      C1336   1.360       .  A
C1329      C1337   1.383       .  A
C1329      C1345   1.422       .  A
C1330      C1346   1.427       .  A
C1330      C1338   1.390       .  A
C1331      C1339   1.387       .  A
C1331      C1656   1.425   1_655  A
C1332      C1963   1.430   1_655  A
C1332      C1340   1.385       .  A
C1333      C1961   1.421   1_545  A
C1333      C1341   1.384   1_655  A
C1334      C1348   1.419   1_455  A
C1334      C1342   1.387       .  A
C1335      C1343   1.386       .  A
C1335      C1654   1.421       .  A
C1336      C1344   1.387       .  A
C1336      C1347   1.426       .  A
C1337      C1338   1.377       .  A
C1337      H1349   1.081       .  S
C1338      H1350   1.082       .  S
C1339      C1340   1.382       .  A
C1339      H1351   1.082       .  S
C1340      H1352   1.079       .  S
C1341      C1342   1.373       .  A
C1341      H1353   1.081       .  S
C1342      H1354   1.082       .  S
C1343      C1344   1.373       .  A
C1343      H1355   1.082   1_655  S
C1344      H1356   1.081   1_655  S
C1345      C1469   1.517       .  S
C1345      C1949   1.419   1_655  A
C1346      C1830   1.497       .  S
C1346      C1643   1.420       .  A
C1347      C1473   1.522       .  S
C1347      C1948   1.429       .  A
C1348      C1518   1.489   1_655  S
C1348      C1639   1.418       .  A
N1359      C1364   1.352       .  A
N1359      C1363   1.361       .  A
N1359      H1391   1.041       .  S
N1360      C1367   1.360       .  A
N1360      C1368   1.354       .  A
N1361      C1366   1.362       .  A
N1361      C1365   1.352       .  A
N1361      H1392   1.041       .  S
N1362      C1369   1.354       .  A
N1362      C1370   1.359       .  A
C1363      C1371   1.386       .  A
C1363      C1379   1.423       .  A
C1364      C1380   1.415       .  A
C1364      C1372   1.386       .  A
C1365      C1373   1.389       .  A
C1365      C1382   1.421       .  A
C1366      C1997   1.419       .  A
C1366      C1374   1.384       .  A
C1367      C1995   1.422       .  A
C1367      C1375   1.385       .  A
C1368      C1382   1.421       .  A
C1368      C1376   1.389       .  A
C1369      C1377   1.387       .  A
C1369      C1380   1.421       .  A
C1370      C1378   1.384       .  A
C1370      C1381   1.422       .  A
C1371      C1372   1.376       .  A
C1371      H1383   1.079       .  S
C1372      H1384   1.082       .  S
C1373      C1374   1.376       .  A
C1373      H1385   1.082       .  S
C1374      H1386   1.080       .  S
C1375      C1376   1.375       .  A
C1375      H1387   1.082       .  S
C1376      H1388   1.082       .  S
C1377      C1378   1.376       .  A
C1377      H1389   1.082       .  S
C1378      H1390   1.081       .  S
C1379      C1983   1.422       .  A
C1380      C1506   1.492       .  S
C1381      C1982   1.425       .  A
C1382      C1502   1.494       .  S
N1393      C1398   1.361       .  A
N1393      C1397   1.353       .  A
N1393      H1425   1.037       .  S
N1394      C1401   1.354       .  A
N1394      C1402   1.360       .  A
N1395      C1400   1.356       .  A
N1395      C1399   1.360       .  A
N1395      H1426   1.039       .  S
N1396      C1403   1.362       .  A
N1396      C1404   1.355       .  A
C1397      C1405   1.389       .  A
C1397      C1721   1.424       .  A
C1398      C1414   1.423       .  A
C1398      C1406   1.385       .  A
C1399      C1407   1.384       .  A
C1399      C2032   1.421   1_545  A
C1400      C1415   1.425   1_554  A
C1400      C1408   1.390       .  A
C1401      C1413   1.419   1_554  A
C1401      C1409   1.388       .  A
C1402      C1416   1.420       .  A
C1402      C1410   1.385       .  A
C1403      C1411   1.382       .  A
C1403      C2030   1.424   1_545  A
C1404      C1412   1.388       .  A
C1404      C1723   1.423       .  A
C1405      C1406   1.380       .  A
C1405      H1417   1.082       .  S
C1406      H1418   1.082       .  S
C1407      C1408   1.377       .  A
C1407      H1419   1.082       .  S
C1408      H1420   1.082       .  S
C1409      C1410   1.369       .  A
C1409      H1421   1.082       .  S
C1410      H1422   1.079       .  S
C1411      C1412   1.375       .  A
C1411      H1423   1.077       .  S
C1412      H1424   1.082       .  S
C1413      C1490   1.486   1_556  S
C1413      C1705   1.421       .  A
C1414      C1461   1.509       .  S
C1414      C2019   1.416       .  A
C1415      C1794   1.499       .  S
C1415      C1712   1.421       .  A
C1416      C1465   1.516       .  S
C1416      C2015   1.422       .  A
N1427      C1432   1.354       .  A
N1427      C1431   1.359       .  A
N1427      H1459   1.041       .  S
N1428      C1435   1.359       .  A
N1428      C1436   1.355       .  A
N1429      C1434   1.359       .  A
N1429      C1433   1.353       .  A
N1429      H1460   1.046       .  S
N1430      C1437   1.354       .  A
N1430      C1438   1.359       .  A
C1431      C1439   1.385       .  A
C1431      C1447   1.418       .  A
C1432      C1448   1.421       .  A
C1432      C1440   1.388       .  A
C1433      C1441   1.389       .  A
C1433      C1450   1.425       .  A
C1434      C2065   1.425       .  A
C1434      C1442   1.387       .  A
C1435      C2063   1.422       .  A
C1435      C1443   1.384       .  A
C1436      C1450   1.422       .  A
C1436      C1444   1.388       .  A
C1437      C1445   1.388       .  A
C1437      C1448   1.420       .  A
C1438      C1446   1.383       .  A
C1438      C1449   1.422       .  A
C1439      C1440   1.375       .  A
C1439      H1451   1.082       .  S
C1440      H1452   1.082       .  S
C1441      C1442   1.374       .  A
C1441      H1453   1.081       .  S
C1442      H1454   1.082       .  S
C1443      C1444   1.368       .  A
C1443      H1455   1.078       .  S
C1444      H1456   1.082       .  S
C1445      C1446   1.374       .  A
C1445      H1457   1.082       .  S
C1446      H1458   1.079       .  S
C1447      C1462   1.511       .  S
C1447      C2051   1.420       .  A
C1448      C1481   1.500       .  S
C1449      C1466   1.521       .  S
C1449      C2050   1.426       .  A
C1450      C1478   1.490       .  S
C1461      C1462   1.353       .  D
C1461      H2079   1.086       .  S
C1462      H1464   1.086       .  S
H1463      C2077   1.086       .  S
C1465      C1466   1.357       .  D
C1465      H1467   1.086       .  S
C1466      H2084   1.086       .  S
H1468      C2082   1.086       .  S
C1469      C1470   1.358       .  D
C1470      H2088   1.086       .  S
H1472      C2086   1.086       .  S
C1473      C1474   1.358   1_655  D
C1473      H1475   1.086       .  S
C1477      C1478   1.342       .  D
C1477      H1479   1.087       .  S
C1478      H1480   1.087       .  S
C1481      C1482   1.346       .  D
C1481      H1483   1.087       .  S
C1482      H1484   1.084       .  S
C1485      C1486   1.346       .  D
C1485      H1795   1.087       .  S
C1486      C1723   1.499       .  S
C1486      H1488   1.087       .  S
H1487      C1793   1.087       .  S
C1489      C1490   1.343   1_556  D
C1489      H1491   1.087       .  S
C1490      H1800   1.087       .  S
H1492      C1798   1.087       .  S
C1493      C1494   1.336       .  D
C1493      H1495   1.087       .  S
C1494      H1496   1.087       .  S
C1497      C1498   1.336       .  D
C1497      H1499   1.087       .  S
C1498      H1500   1.087       .  S
C1505      C1506   1.341       .  D
C1506      H1508   1.087       .  S
C1509      C1510   1.348       .  D
C1509      H1511   1.087       .  S
C1510      H1512   1.086       .  S
C1513      C1514   1.341       .  D
C1513      H1515   1.087       .  S
C1514      H1516   1.087       .  S
C1517      C1518   1.343   1_655  D
C1517      H1519   1.087       .  S
C1518      H1828   1.087       .  S
H1520      C1826   1.087   1_655  S
C1521      H1831   1.087       .  S
C1522      C1654   1.493       .  S
C1522      H1524   1.086       .  S
H1523      C1829   1.087       .  S
C1525      C1834   1.343   1_554  D
C1525      H1527   1.087       .  S
C1526      C1833   1.341       .  D
C1526      H1528   1.087       .  S
C1529      C1838   1.342   1_556  D
C1529      H1531   1.087       .  S
C1530      C1837   1.342       .  D
C1530      H1532   1.087       .  S
C1533      H1535   1.087       .  S
C1534      H1536   1.087       .  S
O1541      C1557   1.274   1_655  A
O1541     Zn1547   2.011       .  S
C1542      O1558   1.277   1_554  A
C1542      C1825   1.483       .  S
O1543     Cd1550   2.113       .  S
O1544      C1562   1.275       .  A
O1544     Cd1553   2.046       .  S
O1545     Cd1549   2.061       .  S
O1546     Cd1549   2.013       .  S
Zn1547     O1558   2.027   1_655  S
Zn1547     O1560   2.022       .  S
Zn1547     O1552   1.939   1_655  S
O1548      C1559   1.278       .  A
O1548     Cd1553   2.107       .  S
Cd1549     O1551   2.065       .  S
Cd1550     O1554   2.111       .  S
Cd1550     O1563   2.070       .  S
Cd1553     O1555   2.101       .  S
C1556      O1560   1.272       .  A
C1556      C1834   1.477       .  S
C1557      C1841   1.461       .  S
C1559      C1837   1.476       .  S
C1561      C1829   1.472       .  S
C1562      C1846   1.453       .  S
O1564      C1580   1.279       .  A
O1564     Zn1570   2.050       .  S
C1565      O1581   1.276       .  A
C1565      C1842   1.456       .  S
O1566      C1579   1.271       .  A
O1566     Cd1573   2.052       .  S
O1567      C1585   1.276   1_655  A
O1567     Cd1576   2.076       .  S
O1568      C1582   1.271       .  A
O1568     Cd1572   2.060       .  S
O1569     Cd1572   2.053       .  S
Zn1570     O1581   2.015       .  S
Zn1570     O1583   2.062       .  S
Zn1570     O1575   1.949       .  S
O1571      C1582   1.275       .  A
O1571     Cd1576   2.088       .  S
Cd1572     O1574   2.024       .  S
Cd1573     O1577   2.038       .  S
Cd1573     O1586   2.056       .  S
Cd1573     O1575   1.988       .  S
O1574      C1584   1.268   1_655  A
Cd1576     O1578   2.039       .  S
C1579      O1583   1.278       .  A
C1579      C1821   1.476       .  S
C1580      C1813   1.483       .  S
C1582      C1818   1.472       .  S
C1584      C1845   1.460   1_455  S
C1585      C1809   1.476       .  S
O1587      C1603   1.272       .  A
O1587     Zn1593   1.997       .  S
C1588      O1604   1.268       .  A
C1588      O1601   1.275       .  A
C1588      C1805   1.452       .  S
O1589     Cd1596   2.083       .  S
O1590     Cd1599   2.072       .  S
O1591      C1605   1.274   1_556  A
O1591     Cd1595   2.069       .  S
O1592     Cd1595   2.072       .  S
Zn1593     O1604   1.981       .  S
Zn1593     O1606   2.014       .  S
Zn1593     O1598   1.933       .  S
O1594     Cd1599   2.073       .  S
Cd1595     O1597   2.041       .  S
Cd1596     O1600   2.059       .  S
Cd1596     O1609   2.092       .  S
O1597      C1607   1.273       .  A
O1598     Cd1599   1.993       .  S
Cd1599     O1601   2.054       .  S
O1600      C1607   1.273       .  A
C1602      O1606   1.272       .  A
C1602      C1833   1.483       .  S
C1603      C1797   1.486       .  S
C1605      C1838   1.472       .  S
C1607      C1801   1.460       .  S
C1608      O1609   1.279   1_554  A
C1608      C1793   1.482       .  S
O1610      C1626   1.277       .  A
O1610     Zn1616   2.043       .  S
C1611      O1627   1.276       .  A
C1611      O1624   1.271       .  A
C1611      C1802   1.454       .  S
O1612      C1625   1.272       .  A
O1612     Cd1619   2.051       .  S
O1613      C1631   1.276       .  A
O1613     Cd1622   2.073       .  S
O1614      C1628   1.276       .  A
O1614     Cd1618   2.098       .  S
O1615      C1626   1.277       .  A
O1615     Cd1618   2.072       .  S
Zn1616     O1627   2.007       .  S
Zn1616     O1629   2.054       .  S
Zn1616     O1621   1.930       .  S
O1617      C1628   1.274       .  A
O1617     Cd1622   2.063       .  S
Cd1618     O1620   2.065       .  S
Cd1618     O1621   1.988       .  S
Cd1619     O1623   2.027       .  S
Cd1619     O1632   2.051       .  S
Cd1619     O1621   1.975       .  S
O1620      C1630   1.277       .  A
O1621     Cd1622   1.986       .  S
Cd1622     O1624   2.045       .  S
O1623      C1630   1.269       .  A
C1625      O1629   1.276       .  A
C1625      C1817   1.479       .  S
C1626      C1790   1.476       .  S
C1628      C1822   1.484       .  S
C1630      C1806   1.456       .  S
C1631      O1632   1.270       .  A
C1631      C1785   1.469       .  S
N1633      C1638   1.350       .  A
N1633      C1637   1.358       .  A
N1633      H1665   1.041   1_655  S
N1634      C1641   1.359       .  A
N1634      C1642   1.351       .  A
N1635      C1640   1.361       .  A
N1635      C1639   1.354       .  A
N1635      H1666   1.040   1_655  S
N1636      C1643   1.354       .  A
N1636      C1644   1.360       .  A
C1637      C1645   1.383       .  A
C1637      C1653   1.413   1_655  A
C1638      C1654   1.416   1_556  A
C1638      C1646   1.389       .  A
C1639      C1647   1.387       .  A
C1640      C2271   1.422   1_545  A
C1640      C1648   1.385       .  A
C1641      C2269   1.417   1_545  A
C1641      C1649   1.382       .  A
C1642      C1656   1.417   1_556  A
C1642      C1650   1.389       .  A
C1643      C1651   1.388       .  A
C1644      C1652   1.385       .  A
C1644      C1655   1.421       .  A
C1645      C1646   1.373       .  A
C1645      H1657   1.078       .  S
C1646      H1658   1.082       .  S
C1647      C1648   1.374       .  A
C1647      H1659   1.082       .  S
C1648      H1660   1.079       .  S
C1649      C1650   1.372       .  A
C1649      H1661   1.079       .  S
C1650      H1662   1.083       .  S
C1651      C1652   1.373       .  A
C1651      H1663   1.082       .  S
C1652      H1664   1.082       .  S
C1653      C1777   1.509       .  S
C1653      C2257   1.416       .  A
C1655      C1781   1.517       .  S
C1655      C2256   1.420       .  A
C1656      C1826   1.489   1_554  S
N1667      C1672   1.356       .  A
N1667      C1671   1.363       .  A
N1667      H1699   1.040       .  S
N1668      C1675   1.358       .  A
N1668      C1676   1.353       .  A
N1669      C1674   1.360       .  A
N1669      C1673   1.351       .  A
N1669      H1700   1.040       .  S
N1670      C1677   1.356       .  A
N1670      C1678   1.360       .  A
C1671      C1679   1.385       .  A
C1671      C1687   1.428       .  A
C1672      C1688   1.423       .  A
C1672      C1680   1.387       .  A
C1673      C1681   1.388       .  A
C1673      C1690   1.418       .  A
C1674      C2305   1.418       .  A
C1674      C1682   1.385       .  A
C1675      C2303   1.419       .  A
C1675      C1683   1.386       .  A
C1676      C1690   1.416       .  A
C1676      C1684   1.387       .  A
C1677      C1685   1.388       .  A
C1677      C1688   1.425       .  A
C1678      C1686   1.384       .  A
C1678      C1689   1.422       .  A
C1679      C1680   1.376       .  A
C1679      H1691   1.078       .  S
C1680      H1692   1.082       .  S
C1681      C1682   1.375       .  A
C1681      H1693   1.082       .  S
C1682      H1694   1.079       .  S
C1683      C1684   1.370       .  A
C1683      H1695   1.080       .  S
C1684      H1696   1.082       .  S
C1685      C1686   1.374       .  A
C1685      H1697   1.082       .  S
C1686      H1698   1.082       .  S
C1687      C2291   1.424       .  A
C1688      C1814   1.499       .  S
C1689      C2290   1.423       .  A
C1690      C1810   1.485       .  S
N1701      C1706   1.361       .  A
N1701      C1705   1.352       .  A
N1701      H1733   1.040       .  S
N1702      C1709   1.357       .  A
N1702      C1710   1.362       .  A
N1703      C1708   1.355       .  A
N1703      C1707   1.363       .  A
N1703      H1734   1.041       .  S
N1704      C1711   1.361       .  A
N1704      C1712   1.355       .  A
C1705      C1713   1.390       .  A
C1706      C1722   1.420       .  A
C1706      C1714   1.385       .  A
C1707      C1715   1.384       .  A
C1707      C2340   1.425   1_545  A
C1708      C1723   1.427       .  A
C1708      C1716   1.390       .  A
C1709      C1721   1.426       .  A
C1709      C1717   1.389       .  A
C1710      C1724   1.424       .  A
C1710      C1718   1.385       .  A
C1711      C1719   1.382       .  A
C1711      C2338   1.423   1_545  A
C1712      C1720   1.387       .  A
C1713      C1714   1.378       .  A
C1713      H1725   1.082       .  S
C1714      H1726   1.082       .  S
C1715      C1716   1.379       .  A
C1715      H1727   1.082       .  S
C1716      H1728   1.082       .  S
C1717      C1718   1.371       .  A
C1717      H1729   1.082       .  S
C1718      H1730   1.080       .  S
C1719      C1720   1.373       .  A
C1719      H1731   1.077       .  S
C1720      H1732   1.082       .  S
C1721      C1798   1.493       .  S
C1722      C1769   1.522       .  S
C1722      C2327   1.420       .  A
C1724      C1773   1.516       .  S
C1724      C2323   1.422       .  A
N1735      C1740   1.355       .  A
N1735      C1739   1.361       .  A
N1735      H1767   1.041       .  S
N1736      C1743   1.357       .  A
N1736      C1744   1.352       .  A
N1737      C1742   1.360       .  A
N1737      C1741   1.352       .  A
N1737      H1768   1.034       .  S
N1738      C1745   1.354       .  A
N1738      C1746   1.360       .  A
C1739      C1747   1.385       .  A
C1739      C1755   1.423       .  A
C1740      C1756   1.425       .  A
C1740      C1748   1.389       .  A
C1741      C1749   1.388       .  A
C1741      C1758   1.419       .  A
C1742      C2373   1.422       .  A
C1742      C1750   1.386       .  A
C1743      C2371   1.416       .  A
C1743      C1751   1.384       .  A
C1744      C1758   1.416       .  A
C1744      C1752   1.387       .  A
C1745      C1753   1.389       .  A
C1745      C1756   1.422       .  A
C1746      C1754   1.383       .  A
C1746      C1757   1.421       .  A
C1747      C1748   1.380       .  A
C1747      H1759   1.082       .  S
C1748      H1760   1.082       .  S
C1749      C1750   1.374       .  A
C1749      H1761   1.081       .  S
C1750      H1762   1.081       .  S
C1751      C1752   1.368       .  A
C1751      H1763   1.077       .  S
C1752      H1764   1.082       .  S
C1753      C1754   1.373       .  A
C1753      H1765   1.082       .  S
C1754      H1766   1.080       .  S
C1755      C1770   1.517       .  S
C1755      C2359   1.422       .  A
C1756      C1789   1.501       .  S
C1757      C1774   1.519       .  S
C1757      C2358   1.424       .  A
C1758      C1786   1.480       .  S
C1769      C1770   1.359       .  D
C1769      H2387   1.086       .  S
C1770      H1772   1.085       .  S
H1771      C2385   1.086       .  S
C1773      C1774   1.358       .  D
C1773      H1775   1.086       .  S
C1774      H2392   1.086       .  S
H1776      C2390   1.086       .  S
C1777      C1778   1.352   1_455  D
C1778      H2396   1.087       .  S
H1780      C2394   1.086       .  S
C1781      C1782   1.356   1_655  D
C1781      H1783   1.086       .  S
C1785      C1786   1.338       .  D
C1785      H1787   1.087       .  S
C1786      H1788   1.086       .  S
C1789      C1790   1.346       .  D
C1789      H1791   1.087       .  S
C1790      H1792   1.084       .  S
C1793      C1794   1.346   1_554  D
C1794      H1796   1.087       .  S
C1797      C1798   1.350       .  D
C1797      H1799   1.086       .  S
C1801      C1802   1.336       .  D
C1801      H1803   1.087       .  S
C1802      H1804   1.087       .  S
C1805      C1806   1.332       .  D
C1805      H1807   1.087       .  S
C1806      H1808   1.089       .  S
C1813      C1814   1.346       .  D
C1814      H1816   1.087       .  S
C1817      C1818   1.344       .  D
C1817      H1819   1.087       .  S
C1818      H1820   1.087       .  S
C1821      C1822   1.345       .  D
C1821      H1823   1.087       .  S
C1822      H1824   1.086       .  S
C1825      C1826   1.344   1_554  D
C1825      H1827   1.087       .  S
C1830      H1832   1.086       .  S
C1833      H1835   1.087       .  S
C1834      H1836   1.087       .  S
C1837      H1839   1.087       .  S
C1838      H1840   1.087       .  S
C1841      H1843   1.087   1_455  S
C1842      H1844   1.087       .  S
O1849      C1865   1.269       .  A
O1849     Zn1855   1.976       .  S
C1850      O1866   1.271       .  A
C1850      C2133   1.473       .  S
O1851      C2172   1.271   1_554  A
O1851     Cd1858   2.050       .  S
O1852      C1870   1.268       .  A
O1852     Cd1861   2.026       .  S
O1853      C2175   1.273       .  A
O1853     Cd1857   2.067       .  S
O1854     Cd1857   2.020       .  S
Zn1855     O1866   2.014       .  S
Zn1855     O1868   2.002       .  S
Zn1855     O1860   1.936       .  S
O1856      C1867   1.275   1_554  A
O1856     Cd1861   2.071       .  S
Cd1857     O1859   2.058       .  S
Cd1858     O1862   2.055       .  S
Cd1858     O1871   2.016       .  S
Cd1858     O2168   1.985   1_654  S
O1859      C2177   1.271       .  A
O1860     Cd2166   2.003       .  S
Cd1861     O1863   2.066       .  S
C1864      O2159   1.278       .  A
C1864      O1868   1.271       .  A
C1864      C2142   1.477       .  S
C1865      C2149   1.452       .  S
C1867      O2161   1.271       .  A
C1867      C2145   1.476       .  S
C1869      O2167   1.272       .  A
C1869      C2137   1.478       .  S
C1870      C2154   1.451       .  S
O1872      C1888   1.277       .  A
O1872     Zn1878   2.046       .  S
C1873      O1889   1.271       .  A
C1873      C2150   1.454       .  S
O1874      C1887   1.276       .  A
O1874     Cd1881   2.082       .  S
O1875      C1893   1.276   1_655  A
O1875     Cd1884   2.084       .  S
O1876      C1890   1.274       .  A
O1876     Cd1880   2.081       .  S
O1877     Cd1880   2.075       .  S
Zn1878     O1889   1.991       .  S
Zn1878     O1891   2.036       .  S
Zn1878     O1883   1.948       .  S
O1879      C1890   1.273       .  A
O1879     Cd1884   2.071       .  S
Cd1880     O1882   2.021   1_655  S
Cd1881     O1885   2.043       .  S
Cd1881     O1894   2.087       .  S
Cd1881     O1883   1.994       .  S
O1882      C1892   1.273       .  A
Cd1884     O1886   2.017       .  S
C1887      O1891   1.275       .  A
C1887      C2129   1.479       .  S
C1888      C2121   1.474       .  S
C1890      C2126   1.474       .  S
C1892      C2153   1.456       .  S
C1893      C2117   1.475       .  S
O1895      C1911   1.274       .  A
O1895     Zn1901   2.007   1_556  S
C1896      O1912   1.270       .  A
C1896      O1909   1.272       .  A
C1896      C2113   1.455       .  S
O1897      C2218   1.277       .  A
O1897     Cd1904   2.083       .  S
O1898      C2224   1.271       .  A
O1898     Cd1907   2.055       .  S
O1899      C1913   1.275       .  A
O1899     Cd1903   2.084       .  S
O1900      C2219   1.273       .  A
O1900     Cd1903   2.074       .  S
Zn1901     O1912   2.003       .  S
Zn1901     O1914   2.023   1_554  S
Zn1901     O1906   1.940   1_554  S
O1902      C2221   1.272   1_554  A
O1902     Cd1907   2.061       .  S
Cd1903     O1905   2.041       .  S
Cd1903     O2214   1.994       .  S
Cd1904     O1908   2.056       .  S
Cd1904     O1917   2.081       .  S
Cd1904     O2214   1.999       .  S
O1905      C1915   1.274       .  A
O1906     Cd2211   1.988       .  S
O1906     Cd2212   1.999       .  S
O1906     Cd1907   1.979   1_556  S
Cd1907     O1909   2.032       .  S
O1908      C1915   1.273       .  A
C1910      O2205   1.275       .  A
C1910      O1914   1.277       .  A
C1910      C2141   1.479       .  S
C1911      O2208   1.274       .  A
C1911      C2105   1.475       .  S
C1913      O2210   1.273       .  A
C1913      C2146   1.478       .  S
C1915      C2109   1.454       .  S
C1916      O2206   1.272       .  A
C1916      O1917   1.277       .  A
C1916      C2101   1.478       .  S
O1918      C1934   1.275       .  A
O1918     Zn1924   2.034       .  S
C1919      O1935   1.272       .  A
C1919      O1932   1.274       .  A
C1919      C2110   1.454       .  S
O1920      C1933   1.273       .  A
O1920     Cd1927   2.063       .  S
O1921      C1939   1.276       .  A
O1921     Cd1930   2.086       .  S
O1922      C1936   1.275       .  A
O1922     Cd1926   2.083       .  S
O1923      C1934   1.273       .  A
O1923     Cd1926   2.068       .  S
Zn1924     O1935   1.998       .  S
Zn1924     O1937   2.038       .  S
Zn1924     O1929   1.948       .  S
O1925      C1936   1.276       .  A
O1925     Cd1930   2.085       .  S
Cd1926     O1928   2.061       .  S
Cd1926     O1929   1.991       .  S
Cd1927     O1931   2.032       .  S
Cd1927     O1940   2.064       .  S
Cd1927     O1929   1.988       .  S
O1928      C1938   1.275       .  A
O1929     Cd1930   1.996       .  S
Cd1930     O1932   2.043       .  S
O1931      C1938   1.269       .  A
C1933      O1937   1.275       .  A
C1933      C2125   1.475       .  S
C1934      C2098   1.475       .  S
C1936      C2130   1.479       .  S
C1938      C2114   1.452       .  S
C1939      O1940   1.272       .  A
C1939      C2093   1.477       .  S
N1941      C1946   1.355       .  A
N1941      C1945   1.362       .  A
N1941      H1973   1.038       .  S
N1942      C1949   1.357   1_655  A
N1942      C1950   1.351   1_655  A
N1943      C1948   1.363   1_455  A
N1943      C1947   1.358   1_455  A
N1943      H1974   1.040       .  S
N1944      C1951   1.355       .  A
N1944      C1952   1.358       .  A
C1945      C1953   1.385       .  A
C1945      C1961   1.423       .  A
C1946      C1962   1.426       .  A
C1946      C1954   1.389       .  A
C1947      C1955   1.388       .  A
C1947      C2272   1.428   1_655  A
C1948      C1956   1.385       .  A
C1949      C1957   1.384       .  A
C1950      C1964   1.417       .  A
C1950      C1958   1.387       .  A
C1951      C1959   1.386       .  A
C1951      C2270   1.418   1_455  A
C1952      C1960   1.386       .  A
C1952      C1963   1.421   1_565  A
C1953      C1954   1.377       .  A
C1953      H1965   1.081       .  S
C1954      H1966   1.082       .  S
C1955      C1956   1.380       .  A
C1955      H1967   1.082       .  S
C1956      H1968   1.080       .  S
C1957      C1958   1.375       .  A
C1957      H1969   1.081       .  S
C1958      H1970   1.082       .  S
C1959      C1960   1.370       .  A
C1959      H1971   1.082       .  S
C1960      H1972   1.080       .  S
C1961      C2085   1.516       .  S
C1962      C2446   1.498       .  S
C1962      C2259   1.423       .  A
C1963      C2089   1.522   1_455  S
C1964      C2134   1.485       .  S
C1964      C2255   1.417   1_455  A
N1975      C1980   1.353       .  A
N1975      C1979   1.363       .  A
N1975      H2007   1.042       .  S
N1976      C1983   1.360       .  A
N1976      C1984   1.354       .  A
N1977      C1982   1.362       .  A
N1977      C1981   1.355       .  A
N1977      H2008   1.039       .  S
N1978      C1985   1.351       .  A
N1978      C1986   1.359       .  A
C1979      C1987   1.385       .  A
C1979      C1995   1.424   1_565  A
C1980      C1996   1.418       .  A
C1980      C1988   1.387       .  A
C1981      C1989   1.388       .  A
C1981      C1998   1.425       .  A
C1982      C1990   1.386       .  A
C1983      C1991   1.385       .  A
C1984      C1998   1.422       .  A
C1984      C1992   1.388       .  A
C1985      C1993   1.389       .  A
C1985      C1996   1.420       .  A
C1986      C1994   1.383       .  A
C1986      C1997   1.419   1_565  A
C1987      C1988   1.376       .  A
C1987      H1999   1.078       .  S
C1988      H2000   1.082       .  S
C1989      C1990   1.378       .  A
C1989      H2001   1.082       .  S
C1990      H2002   1.081       .  S
C1991      C1992   1.373       .  A
C1991      H2003   1.081       .  S
C1992      H2004   1.082       .  S
C1993      C1994   1.377       .  A
C1993      H2005   1.082       .  S
C1994      H2006   1.082       .  S
C1996      C2122   1.489       .  S
C1998      C2118   1.496       .  S
N2009      C2014   1.359       .  A
N2009      C2013   1.353       .  A
N2009      H2041   1.040       .  S
N2010      C2017   1.354       .  A
N2010      C2018   1.358       .  A
N2011      C2016   1.354       .  A
N2011      C2015   1.361       .  A
N2011      H2042   1.041       .  S
N2012      C2019   1.357       .  A
N2012      C2020   1.351       .  A
C2013      C2021   1.388       .  A
C2013      C2337   1.419       .  A
C2014      C2030   1.419       .  A
C2014      C2022   1.385       .  A
C2015      C2023   1.384       .  A
C2016      C2031   1.424   1_554  A
C2016      C2024   1.390       .  A
C2017      C2029   1.418   1_554  A
C2017      C2025   1.386       .  A
C2018      C2032   1.420       .  A
C2018      C2026   1.384       .  A
C2019      C2027   1.384       .  A
C2020      C2028   1.387       .  A
C2020      C2339   1.415       .  A
C2021      C2022   1.375       .  A
C2021      H2033   1.082       .  S
C2022      H2034   1.080       .  S
C2023      C2024   1.380       .  A
C2023      H2035   1.082       .  S
C2024      H2036   1.082       .  S
C2025      C2026   1.369       .  A
C2025      H2037   1.082       .  S
C2026      H2038   1.076       .  S
C2027      C2028   1.371       .  A
C2027      H2039   1.079       .  S
C2028      H2040   1.083       .  S
C2029      C2106   1.488       .  S
C2029      C2321   1.419       .  A
C2030      C2077   1.520       .  S
C2031      C2410   1.492       .  S
C2031      C2328   1.416       .  A
C2032      C2081   1.510       .  S
N2043      C2048   1.355       .  A
N2043      C2047   1.363       .  A
N2043      H2075   1.047       .  S
N2044      C2051   1.359       .  A
N2044      C2052   1.353       .  A
N2045      C2050   1.363       .  A
N2045      C2049   1.356       .  A
N2045      H2076   1.034       .  S
N2046      C2053   1.356       .  A
N2046      C2054   1.361       .  A
C2047      C2055   1.384       .  A
C2047      C2063   1.427   1_565  A
C2048      C2064   1.425       .  A
C2048      C2056   1.389       .  A
C2049      C2057   1.391       .  A
C2049      C2066   1.429       .  A
C2050      C2058   1.385       .  A
C2051      C2059   1.382       .  A
C2052      C2066   1.423       .  A
C2052      C2060   1.389       .  A
C2053      C2061   1.390       .  A
C2053      C2064   1.428       .  A
C2054      C2062   1.380       .  A
C2054      C2065   1.425   1_565  A
C2055      C2056   1.377       .  A
C2055      H2067   1.080       .  S
C2056      H2068   1.081       .  S
C2057      C2058   1.376       .  A
C2057      H2069   1.081       .  S
C2058      H2070   1.082       .  S
C2059      C2060   1.373       .  A
C2059      H2071   1.077       .  S
C2060      H2072   1.082       .  S
C2061      C2062   1.368       .  A
C2061      H2073   1.080       .  S
C2062      H2074   1.076       .  S
C2063      C2078   1.520       .  S
C2064      C2097   1.496       .  S
C2065      C2082   1.518       .  S
C2066      C2094   1.491       .  S
C2077      C2078   1.356   1_565  D
C2078      H2080   1.086       .  S
C2081      C2082   1.356   1_565  D
C2081      H2083   1.086       .  S
C2085      C2086   1.357   1_565  D
C2089      C2090   1.355   1_655  D
C2089      H2091   1.087   1_545  S
C2093      C2094   1.343       .  D
C2093      H2095   1.087       .  S
C2094      H2096   1.086       .  S
C2097      C2098   1.345       .  D
C2097      H2099   1.086       .  S
C2098      H2100   1.087       .  S
C2101      C2102   1.342       .  D
C2101      H2411   1.087       .  S
C2102      C2339   1.489       .  S
C2102      H2104   1.087       .  S
H2103      C2409   1.087       .  S
C2105      C2106   1.345       .  D
C2105      H2107   1.087       .  S
C2106      H2416   1.087   1_556  S
H2108      C2414   1.087       .  S
C2109      C2110   1.336       .  D
C2109      H2111   1.087       .  S
C2110      H2112   1.088       .  S
C2113      C2114   1.333       .  D
C2113      H2115   1.087       .  S
C2114      H2116   1.088       .  S
C2121      C2122   1.341       .  D
C2122      H2124   1.087       .  S
C2125      C2126   1.344       .  D
C2125      H2127   1.087       .  S
C2126      H2128   1.087       .  S
C2129      C2130   1.344       .  D
C2129      H2131   1.087       .  S
C2130      H2132   1.087       .  S
C2133      C2134   1.343   1_655  D
C2133      H2135   1.087       .  S
C2134      H2444   1.087       .  S
H2136      C2442   1.087   1_556  S
C2137      H2447   1.087       .  S
C2138      C2270   1.490       .  S
C2138      H2140   1.087       .  S
H2139      C2445   1.087       .  S
C2141      C2450   1.343       .  D
C2141      H2143   1.087       .  S
C2142      C2449   1.342       .  D
C2142      H2144   1.087       .  S
C2145      C2454   1.343   1_556  D
C2145      H2147   1.087       .  S
C2146      C2453   1.346       .  D
C2146      H2148   1.087       .  S
C2149      H2151   1.087       .  S
C2150      H2152   1.087       .  S
O2157      C2173   1.275       .  A
O2157     Zn2163   2.020       .  S
C2158      O2174   1.281   1_454  A
C2158      C2441   1.482       .  S
O2159     Cd2166   2.090       .  S
O2160      C2178   1.271       .  A
O2160     Cd2169   2.039       .  S
O2161     Cd2165   2.066       .  S
O2162     Cd2165   2.029       .  S
Zn2163     O2174   2.061       .  S
Zn2163     O2176   2.048       .  S
Zn2163     O2168   1.954   1_655  S
O2164      C2175   1.272       .  A
O2164     Cd2169   2.069       .  S
Cd2165     O2167   2.064       .  S
Cd2166     O2170   2.103       .  S
Cd2166     O2179   2.063       .  S
Cd2169     O2171   2.060       .  S
C2172      O2176   1.278       .  A
C2172      C2450   1.476       .  S
C2173      C2457   1.464       .  S
C2175      C2453   1.475       .  S
C2177      C2445   1.485       .  S
C2178      C2462   1.460       .  S
O2180      C2196   1.273       .  A
O2180     Zn2186   2.015       .  S
C2181      O2197   1.268       .  A
C2181      C2458   1.452       .  S
O2182      C2195   1.276       .  A
O2182     Cd2189   2.083       .  S
O2183      C2201   1.274       .  A
O2183     Cd2192   2.071       .  S
O2184      C2198   1.275       .  A
O2184     Cd2188   2.076       .  S
O2185     Cd2188   2.062       .  S
Zn2186     O2197   1.966       .  S
Zn2186     O2199   2.005       .  S
Zn2186     O2191   1.933       .  S
O2187      C2198   1.272       .  A
O2187     Cd2192   2.066       .  S
Cd2188     O2190   2.052       .  S
Cd2189     O2193   2.052       .  S
Cd2189     O2202   2.080       .  S
Cd2189     O2191   1.998       .  S
O2190      C2200   1.272       .  A
Cd2192     O2194   2.043       .  S
C2195      O2199   1.270       .  A
C2195      C2437   1.472       .  S
C2196      C2429   1.477       .  S
C2198      C2434   1.470       .  S
C2200      C2461   1.463       .  S
C2201      C2425   1.475   1_655  S
O2203      C2219   1.274       .  A
O2203     Zn2209   2.018       .  S
C2204      O2220   1.273       .  A
C2204      O2217   1.269       .  A
C2204      C2421   1.449       .  S
O2205     Cd2212   2.077       .  S
O2206     Cd2215   2.068       .  S
O2207      C2221   1.275       .  A
O2207     Cd2211   2.076       .  S
O2208     Cd2211   2.074       .  S
Zn2209     O2220   1.989       .  S
Zn2209     O2222   2.009       .  S
Zn2209     O2214   1.935       .  S
O2210     Cd2215   2.056       .  S
Cd2211     O2213   2.034       .  S
Cd2212     O2216   2.066       .  S
Cd2212     O2225   2.083       .  S
O2213      C2223   1.273       .  A
O2214     Cd2215   1.987       .  S
Cd2215     O2217   2.035       .  S
O2216      C2223   1.274       .  A
C2218      O2222   1.271       .  A
C2218      C2449   1.478       .  S
C2219      C2413   1.478       .  S
C2221      C2454   1.475   1_556  S
C2223      C2417   1.459       .  S
C2224      O2225   1.277   1_554  A
C2224      C2409   1.475       .  S
O2226      C2242   1.272       .  A
O2226     Zn2232   2.005       .  S
C2227      O2243   1.273       .  A
C2227      O2240   1.275       .  A
C2227      C2418   1.454       .  S
O2228      C2241   1.271       .  A
O2228     Cd2235   2.053       .  S
O2229      C2247   1.277       .  A
O2229     Cd2238   2.096       .  S
O2230      C2244   1.271       .  A
O2230     Cd2234   2.060       .  S
O2231      C2242   1.273       .  A
O2231     Cd2234   2.079       .  S
Zn2232     O2243   1.996       .  S
Zn2232     O2245   2.031       .  S
Zn2232     O2237   1.939       .  S
O2233      C2244   1.277       .  A
O2233     Cd2238   2.088       .  S
Cd2234     O2236   2.033       .  S
Cd2234     O2237   1.991       .  S
Cd2235     O2239   2.048       .  S
Cd2235     O2248   2.065       .  S
Cd2235     O2237   1.990       .  S
O2236      C2246   1.273       .  A
O2237     Cd2238   1.997       .  S
Cd2238     O2240   2.051       .  S
O2239      C2246   1.271       .  A
C2241      O2245   1.272       .  A
C2241      C2433   1.473       .  S
C2242      C2406   1.474       .  S
C2244      C2438   1.471       .  S
C2246      C2422   1.454       .  S
C2247      O2248   1.272       .  A
C2247      C2401   1.480       .  S
N2249      C2254   1.351   1_455  A
N2249      C2253   1.358   1_455  A
N2249      H2281   1.041       .  S
N2250      C2257   1.358       .  A
N2250      C2258   1.349       .  A
N2251      C2256   1.360       .  A
N2251      C2255   1.353       .  A
N2251      H2282   1.041   1_655  S
N2252      C2259   1.356       .  A
N2252      C2260   1.360       .  A
C2253      C2261   1.384       .  A
C2253      C2269   1.414   1_655  A
C2254      C2270   1.417   1_556  A
C2254      C2262   1.389       .  A
C2255      C2263   1.388       .  A
C2256      C2264   1.384       .  A
C2257      C2265   1.383       .  A
C2258      C2272   1.415   1_556  A
C2258      C2266   1.388       .  A
C2259      C2267   1.388       .  A
C2260      C2268   1.386       .  A
C2260      C2271   1.423       .  A
C2261      C2262   1.374       .  A
C2261      H2273   1.080       .  S
C2262      H2274   1.082       .  S
C2263      C2264   1.375       .  A
C2263      H2275   1.082       .  S
C2264      H2276   1.079       .  S
C2265      C2266   1.374       .  A
C2265      H2277   1.080       .  S
C2266      H2278   1.082       .  S
C2267      C2268   1.372       .  A
C2267      H2279   1.082       .  S
C2268      H2280   1.081       .  S
C2269      C2393   1.511       .  S
C2271      C2397   1.517       .  S
C2272      C2442   1.493   1_455  S
N2283      C2288   1.355       .  A
N2283      C2287   1.362       .  A
N2283      H2315   1.041       .  S
N2284      C2291   1.359       .  A
N2284      C2292   1.356       .  A
N2285      C2290   1.360       .  A
N2285      C2289   1.356       .  A
N2285      H2316   1.040       .  S
N2286      C2293   1.351       .  A
N2286      C2294   1.358       .  A
C2287      C2295   1.384       .  A
C2287      C2303   1.423   1_565  A
C2288      C2304   1.421       .  A
C2288      C2296   1.388       .  A
C2289      C2297   1.387       .  A
C2289      C2306   1.423       .  A
C2290      C2298   1.386       .  A
C2291      C2299   1.386       .  A
C2292      C2306   1.421       .  A
C2292      C2300   1.387       .  A
C2293      C2301   1.388       .  A
C2293      C2304   1.419       .  A
C2294      C2302   1.384       .  A
C2294      C2305   1.418   1_565  A
C2295      C2296   1.376       .  A
C2295      H2307   1.079       .  S
C2296      H2308   1.082       .  S
C2297      C2298   1.376       .  A
C2297      H2309   1.082       .  S
C2298      H2310   1.079       .  S
C2299      C2300   1.370       .  A
C2299      H2311   1.079       .  S
C2300      H2312   1.082       .  S
C2301      C2302   1.375       .  A
C2301      H2313   1.082       .  S
C2302      H2314   1.081       .  S
C2304      C2430   1.489       .  S
C2306      C2426   1.497       .  S
N2317      C2322   1.358       .  A
N2317      C2321   1.353       .  A
N2317      H2349   1.038       .  S
N2318      C2325   1.354       .  A
N2318      C2326   1.358       .  A
N2319      C2324   1.355       .  A
N2319      C2323   1.359       .  A
N2319      H2350   1.039       .  S
N2320      C2327   1.360       .  A
N2320      C2328   1.352       .  A
C2321      C2329   1.388       .  A
C2322      C2338   1.418       .  A
C2322      C2330   1.385       .  A
C2323      C2331   1.386       .  A
C2324      C2339   1.421       .  A
C2324      C2332   1.387       .  A
C2325      C2337   1.417       .  A
C2325      C2333   1.387       .  A
C2326      C2340   1.419       .  A
C2326      C2334   1.384       .  A
C2327      C2335   1.382       .  A
C2328      C2336   1.387       .  A
C2329      C2330   1.373       .  A
C2329      H2341   1.082       .  S
C2330      H2342   1.079       .  S
C2331      C2332   1.378       .  A
C2331      H2343   1.082       .  S
C2332      H2344   1.082       .  S
C2333      C2334   1.368       .  A
C2333      H2345   1.082       .  S
C2334      H2346   1.077       .  S
C2335      C2336   1.373       .  A
C2335      H2347   1.077       .  S
C2336      H2348   1.083       .  S
C2337      C2414   1.490       .  S
C2338      C2385   1.515       .  S
C2340      C2389   1.516       .  S
N2351      C2356   1.354       .  A
N2351      C2355   1.364       .  A
N2351      H2383   1.038       .  S
N2352      C2359   1.359       .  A
N2352      C2360   1.356       .  A
N2353      C2358   1.361       .  A
N2353      C2357   1.356       .  A
N2353      H2384   1.038       .  S
N2354      C2361   1.354       .  A
N2354      C2362   1.360       .  A
C2355      C2363   1.383       .  A
C2355      C2371   1.424   1_565  A
C2356      C2372   1.423       .  A
C2356      C2364   1.390       .  A
C2357      C2365   1.390       .  A
C2357      C2374   1.426       .  A
C2358      C2366   1.385       .  A
C2359      C2367   1.384       .  A
C2360      C2374   1.421       .  A
C2360      C2368   1.387       .  A
C2361      C2369   1.390       .  A
C2361      C2372   1.425       .  A
C2362      C2370   1.380       .  A
C2362      C2373   1.424   1_565  A
C2363      C2364   1.375       .  A
C2363      H2375   1.079       .  S
C2364      H2376   1.081       .  S
C2365      C2366   1.376       .  A
C2365      H2377   1.080       .  S
C2366      H2378   1.082       .  S
C2367      C2368   1.371       .  A
C2367      H2379   1.077       .  S
C2368      H2380   1.082       .  S
C2369      C2370   1.373       .  A
C2369      H2381   1.080       .  S
C2370      H2382   1.077       .  S
C2371      C2386   1.515       .  S
C2372      C2405   1.488       .  S
C2373      C2390   1.519       .  S
C2374      C2402   1.496       .  S
C2385      C2386   1.354   1_565  D
C2386      H2388   1.086       .  S
C2389      C2390   1.355   1_565  D
C2389      H2391   1.086       .  S
C2393      C2394   1.354   1_465  D
C2397      C2398   1.357   1_565  D
C2397      H2399   1.086       .  S
C2401      C2402   1.344       .  D
C2401      H2403   1.087       .  S
C2402      H2404   1.086       .  S
C2405      C2406   1.345       .  D
C2405      H2407   1.086       .  S
C2406      H2408   1.086       .  S
C2409      C2410   1.342   1_554  D
C2410      H2412   1.087       .  S
C2413      C2414   1.345       .  D
C2413      H2415   1.087       .  S
C2417      C2418   1.339       .  D
C2417      H2419   1.087       .  S
C2418      H2420   1.087       .  S
C2421      C2422   1.335       .  D
C2421      H2423   1.087       .  S
C2422      H2424   1.088       .  S
C2429      C2430   1.346       .  D
C2430      H2432   1.087       .  S
C2433      C2434   1.342       .  D
C2433      H2435   1.087       .  S
C2434      H2436   1.087       .  S
C2437      C2438   1.338       .  D
C2437      H2439   1.087       .  S
C2438      H2440   1.087       .  S
C2441      C2442   1.341   1_455  D
C2441      H2443   1.087       .  S
C2446      H2448   1.086       .  S
C2449      H2451   1.087       .  S
C2450      H2452   1.087   1_556  S
C2453      H2455   1.087       .  S
C2454      H2456   1.087       .  S
C2457      H2459   1.087       .  S
C2458      H2460   1.087       .  S
