geometry optimzed in LAMMPS
_audit_creation_date              2020-11-30 
_audit_creation_method            'lammps2cif' 
_symmetry_space_group_name_H-M    'P1' 
_symmetry_Int_Tables_number       1 
_symmetry_cell_setting            triclinic 
loop_ 
_symmetry_equiv_pos_as_xyz 
  x,y,z 
_cell_length_a                    55.17708534 
_cell_length_b                    55.29953114175368 
_cell_length_c                    116.40659001303594 
_cell_angle_alpha                 89.42655165614178 
_cell_angle_beta                  90.69477745883047 
_cell_angle_gamma                 123.75125912118843 
loop_ 
_atom_site_label 
_atom_site_type_symbol 
_atom_site_fract_x 
_atom_site_fract_y 
_atom_site_fract_z 
_atom_site_charge 
O1          O  0.77829411  0.98440018  0.76865595    -0.56900
C2          C  0.79918501  0.06171036  0.77149638     0.75800
O3          O  0.70563555  0.96464078  0.76666177    -0.58000
C4          C  0.76879039  0.96415326  0.77599986     0.75700
C5          C  0.73802646  0.00811408  0.79997220     0.78100
Cd6        Cd  0.75072829  0.00379144  0.77625250     1.37500
O7          O  0.80013443  0.03964371  0.76993130    -0.56900
O8          O  0.76282724  0.01471086  0.79682965    -0.55700
C9          C  0.70586370  0.97976635  0.75841170     0.78100
O10         O  0.71889725  0.99997137  0.79213019    -0.58000
O11         O  0.77507256  0.05704078  0.77470973    -0.56500
O12         O  0.75152720  0.96268723  0.78344994    -0.56500
O13         O  0.72547186  0.00669577  0.75878956    -0.55700
O14         O  0.72351691  0.97370830  0.91859353    -0.56900
C15         C  0.70624284  0.99701950  0.88244427     0.75800
O16         O  0.66199604  0.91634938  0.90692629    -0.58000
C17         C  0.72028149  0.98766322  0.92623753     0.75700
C18         C  0.63231247  0.96351007  0.90852538     0.78100
Cd19       Cd  0.68698985  0.96962256  0.90485390     1.37500
O20         O  0.72390800  0.00679803  0.89088052    -0.56900
O21         O  0.65611892  0.98835429  0.90824411    -0.55700
C22         C  0.68039523  0.91525267  0.90094078     0.78100
O23         O  0.63397237  0.94168332  0.90748923    -0.58000
O24         O  0.68023771  0.97698428  0.88467900    -0.56500
O25         O  0.70360330  0.99590285  0.92367006    -0.56500
O26         O  0.70116806  0.93896371  0.89681335    -0.55700
O27         O  0.02841965  0.29338575  0.79768557    -0.56900
C28         C  0.06078830  0.33572811  0.75835553     0.75800
O29         O  0.07221448  0.27947888  0.76805274    -0.58000
C30         C  0.04871658  0.31866302  0.80073944     0.75700
C31         C  0.98889035  0.24450143  0.77365883     0.78100
Cd32       Cd  0.04522413  0.29656993  0.77776004     1.37500
O33         O  0.07960133  0.33845242  0.76549342    -0.56900
O34         O  0.99115110  0.26803197  0.77599056    -0.55700
C35         C  0.08332521  0.27635010  0.77701463     0.78100
O36         O  0.01229499  0.24548680  0.77322805    -0.58000
O37         O  0.03441981  0.31701783  0.76081200    -0.56500
O38         O  0.06659612  0.33468211  0.79300503    -0.56500
O39         O  0.07691029  0.28257129  0.78643586    -0.55700
O40         O  0.05006350  0.34560329  0.89115974    -0.56900
C41         C  0.06810081  0.34486625  0.92765970     0.75800
O42         O  0.13872112  0.40836067  0.90524345    -0.58000
C43         C  0.06610808  0.36158997  0.88294428     0.75700
C44         C  0.07824816  0.42755859  0.90992356     0.78100
Cd45       Cd  0.08490020  0.37928123  0.90650240     1.37500
O46         O  0.05275712  0.33415914  0.91861066    -0.56900
O47         O  0.05634309  0.40198693  0.90808732    -0.55700
C48         C  0.14030368  0.38677971  0.90329191     0.78100
O49         O  0.10269858  0.43054824  0.91047500    -0.58000
O50         O  0.08939117  0.37110993  0.92698253    -0.56500
O51         O  0.08922210  0.38536372  0.88571699    -0.56500
O52         O  0.11652852  0.36203670  0.90308695    -0.55700
O53         O  0.06214740  0.75603075  0.78525174    -0.56900
C54         C  0.97792888  0.70376477  0.78203689     0.75800
O55         O  0.03411662  0.66899618  0.77313643    -0.58000
C56         C  0.08528328  0.75682769  0.78677838     0.75700
C57         C  0.02199365  0.67616011  0.80828287     0.78100
Cd58       Cd  0.02888648  0.70253432  0.78577288     1.37500
O59         O  0.00206489  0.72570084  0.78540429    -0.56900
O60         O  0.01737484  0.69589487  0.80662291    -0.55700
C61         C  0.03623321  0.68252909  0.76395042     0.78100
O62         O  0.02798022  0.66724904  0.79947568    -0.58000
O63         O  0.97671054  0.68036469  0.78071187    -0.56500
O64         O  0.08233177  0.73270869  0.78836246    -0.56500
O65         O  0.03321797  0.70343326  0.76489958    -0.55700
O66         O  0.10895378  0.63386945  0.91428686    -0.56900
C67         C  0.14625498  0.71291303  0.90627597     0.75800
O68         O  0.08113392  0.65427591  0.88945634    -0.58000
C69         C  0.08553179  0.60886820  0.91351065     0.75700
C70         C  0.07120743  0.68172665  0.93047454     0.78100
Cd71       Cd  0.08780895  0.66261080  0.91029220     1.37500
O72         O  0.12390739  0.70958769  0.90152661    -0.56900
O73         O  0.06628090  0.65650022  0.93003674    -0.55700
C74         C  0.05830916  0.65423300  0.88835223     0.78100
O75         O  0.08207208  0.69708681  0.92156074    -0.58000
O76         O  0.14204430  0.69255683  0.91285961    -0.56500
O77         O  0.06250774  0.60828910  0.91169596    -0.56500
O78         O  0.04775072  0.65671289  0.89752950    -0.55700
O79         O  0.35610644  0.99124715  0.79281633    -0.56900
C80         C  0.34687147  0.99627297  0.75771219     0.75800
O81         O  0.27216652  0.96981585  0.77832398    -0.58000
C82         C  0.35284842  0.00191437  0.80176315     0.75700
C83         C  0.32284131  0.05098754  0.77910882     0.78100
Cd84       Cd  0.32571926  0.00047527  0.77988736     1.37500
O85         O  0.36308297  0.00369147  0.76654356    -0.56900
O86         O  0.34698713  0.05376318  0.77750817    -0.55700
C87         C  0.26924790  0.94615325  0.78095814     0.78100
O88         O  0.30118284  0.02563449  0.78125053    -0.58000
O89         O  0.32244180  0.99270486  0.75908453    -0.56500
O90         O  0.33814702  0.01297568  0.80055430    -0.56500
O91         O  0.29238070  0.94745601  0.78329199    -0.55700
O92         O  0.40412111  0.95535925  0.88152157    -0.56900
C93         C  0.38474348  0.96502938  0.92432996     0.75800
O94         O  0.34306257  0.91160477  0.89749779    -0.58000
C95         C  0.39473939  0.97156327  0.88027687     0.75700
C96         C  0.45127776  0.95565584  0.90494255     0.78100
Cd97       Cd  0.39470901  0.94698889  0.90248059     1.37500
O98         O  0.39238817  0.98151530  0.91560431    -0.56900
O99         O  0.44846192  0.97686404  0.90511787    -0.55700
C100        C  0.34209455  0.88921790  0.90076466     0.72700
O101        O  0.42819499  0.93073089  0.90346034    -0.58000
O102        O  0.38270520  0.94136014  0.92297093    -0.56500
O103        O  0.38650699  0.97745588  0.88932227    -0.56500
O104        O  0.36578773  0.89319799  0.90433613    -0.55700
O105        O  0.32176691  0.31082391  0.76490904    -0.56900
C106        C  0.33131615  0.29958621  0.79744036     0.75800
O107        O  0.25353106  0.25277498  0.76920634    -0.58000
C108        C  0.32366140  0.29912931  0.75597344     0.75700
C109        C  0.31033526  0.22028281  0.77616920     0.78100
Cd110      Cd  0.30142782  0.26674240  0.77708815     1.37500
O111        O  0.33038474  0.31211140  0.78845056    -0.56900
O112        O  0.33147825  0.24669134  0.77629629    -0.55700
C113        C  0.24159029  0.24959425  0.77878694     0.78100
O114        O  0.28497299  0.21527806  0.77636100    -0.58000
O115        O  0.31964572  0.27247282  0.79680592    -0.56500
O116        O  0.31662852  0.27321825  0.75698306    -0.56500
O117        O  0.25656305  0.25254218  0.78759051    -0.55700
O118        O  0.40246941  0.44460855  0.90133479    -0.56900
C119        C  0.31675594  0.38846569  0.89632814     0.75800
O120        O  0.37122405  0.35831194  0.88448164    -0.58000
C121        C  0.42618866  0.44663014  0.89985462     0.75700
C122        C  0.36458714  0.36398388  0.91990834     0.78100
Cd123      Cd  0.37071036  0.39214555  0.89806093     1.37500
O124        O  0.34100808  0.41279517  0.89661954    -0.56900
O125        O  0.36598253  0.38747209  0.91886063    -0.55700
C126        C  0.37144275  0.37168691  0.87553689     0.78100
O127        O  0.36683856  0.35318008  0.91075452    -0.58000
O128        O  0.31753401  0.36604903  0.89675617    -0.56500
O129        O  0.42442080  0.42329356  0.89772059    -0.56500
O130        O  0.37204524  0.39461506  0.87705631    -0.55700
O131        O  0.72916854  0.71034793  0.75795972    -0.56900
C132        C  0.74749083  0.71086468  0.79149959     0.75800
O133        O  0.82560555  0.76071357  0.77234178    -0.58000
C134        C  0.74215049  0.72098656  0.74853189     0.75700
C135        C  0.78134332  0.79636650  0.77406870     0.78100
Cd136      Cd  0.77356021  0.74098704  0.77024346     1.37500
O137        O  0.73192829  0.70844049  0.78292244    -0.56900
O138        O  0.76355383  0.77358252  0.77957557    -0.55700
C139        C  0.82342658  0.73720745  0.77011885     0.78100
O140        O  0.79670638  0.79423515  0.76669939    -0.58000
O141        O  0.77473874  0.72546010  0.78998315    -0.56500
O142        O  0.76930036  0.73964975  0.74916644    -0.56500
O143        O  0.79826655  0.71555897  0.76745682    -0.55700
O144        O  0.64846665  0.70927763  0.90025426    -0.56900
C145        C  0.61785868  0.62813171  0.89583458     0.75800
O146        O  0.70559556  0.68379127  0.88029248    -0.58000
C147        C  0.66429913  0.73182201  0.89423308     0.75700
C148        C  0.70846845  0.69503094  0.91410430     0.78100
Cd149      Cd  0.67163700  0.68413532  0.89410464     1.37500
O150        O  0.61900663  0.65139163  0.89731052    -0.56900
O151        O  0.68259744  0.67298407  0.91345065    -0.55700
C152        C  0.69058700  0.68093430  0.87146343     0.78100
O153        O  0.71785546  0.71144369  0.90537270    -0.58000
O154        O  0.64162183  0.63073340  0.89363657    -0.56500
O155        O  0.68308843  0.73212367  0.88801868    -0.56500
O156        O  0.66705684  0.67914505  0.87316590    -0.55700
C157        C  0.04721975  0.75216150  0.02569060     0.87400
C158        C  0.02287367  0.75746155  0.02415061    -0.52800
C159        C  0.02382126  0.77058703  0.01397774     0.10400
C160        C  0.04963456  0.77747097  0.00625046     0.21300
C161        C  0.04505489  0.73497021  0.01499325    -0.53500
C162        C  0.04650409  0.74810757  0.00475933     0.10500
C163        C  0.07549753  0.78231822  0.02408081    -0.53100
C164        C  0.07693688  0.79569798  0.01394620     0.11000
H165        H  0.00593788  0.75069051  0.03048201     0.15600
H166        H  0.05061365  0.78835923  0.99804770     0.01300
H167        H  0.04322261  0.71440264  0.01555099     0.15900
H168        H  0.09324532  0.79218335  0.03028437     0.15700
C169        C  0.05334960  0.24605613  0.02229493     0.87400
C170        C  0.07673066  0.23916579  0.02172591    -0.52800
C171        C  0.07687676  0.22681692  0.01160592     0.10400
C172        C  0.05310869  0.22222709  0.00295818     0.21300
C173        C  0.05881017  0.26502434  0.01166300    -0.53500
C174        C  0.05841555  0.25260717  0.00150502     0.10500
C175        C  0.02464845  0.21706445  0.01972796    -0.53100
C176        C  0.02435420  0.20450471  0.00964097     0.11000
H177        H  0.09249471  0.24455116  0.02853978     0.15600
H178        H  0.05279673  0.21208575  0.99472576     0.01300
H179        H  0.06207090  0.28625316  0.01213878     0.15900
H180        H  0.00607397  0.20724342  0.02545619     0.15700
C181        C  0.29760655  0.24754289  0.99026470     0.87400
C182        C  0.26719953  0.24173510  0.99129272    -0.52800
C183        C  0.25226423  0.22650617  0.00090392     0.10400
C184        C  0.26964616  0.21818261  0.00868601     0.21300
C185        C  0.31315701  0.26262014  0.00152769    -0.53500
C186        C  0.29869766  0.24747566  0.01122432     0.10500
C187        C  0.29259312  0.21741573  0.99105761    -0.53100
C188        C  0.27806901  0.20186497  0.00065760     0.11000
H189        H  0.25881216  0.25004144  0.98503341     0.15600
H190        H  0.25771128  0.20564229  0.01647659     0.01300
H191        H  0.33391122  0.28355687  0.00175398     0.15900
H192        H  0.30054194  0.20920539  0.98473479     0.15700
C193        C  0.79544857  0.98896031  0.02350958     0.87400
C194        C  0.82484759  0.01795612  0.02219926    -0.52800
C195        C  0.84052322  0.01960499  0.01288222     0.10400
C196        C  0.82550479  0.99128148  0.00581293     0.21300
C197        C  0.77995481  0.98455862  0.01191049    -0.53500
C198        C  0.79567755  0.98599559  0.00259375     0.10500
C199        C  0.80290859  0.96605831  0.02377167    -0.53100
C200        C  0.81853042  0.96698508  0.01457306     0.11000
H201        H  0.83198175  0.03625006  0.02788184     0.15600
H202        H  0.83843850  0.99260150  0.99831509     0.01300
H203        H  0.75873347  0.98138237  0.01116190     0.15900
H204        H  0.79588025  0.94990297  0.03052535     0.15700
C205        C  0.31127175  0.00808829  0.99203077     0.87400
C206        C  0.30716377  0.03332912  0.99170861    -0.52800
C207        C  0.29138302  0.03356538  0.00059219     0.10400
C208        C  0.28127460  0.00828053  0.00921440     0.21300
C209        C  0.32494148  0.01025574  0.00385492    -0.53500
C210        C  0.30932472  0.01019294  0.01297038     0.10500
C211        C  0.28021719  0.98077066  0.99276667    -0.53100
C212        C  0.26437910  0.98048397  0.00177169     0.11000
H213        H  0.31540031  0.04946931  0.98489517     0.15600
H214        H  0.26830263  0.00838759  0.01639516     0.01300
H215        H  0.34519413  0.01152971  0.00477774     0.15900
H216        H  0.27195763  0.96278676  0.98682254     0.15700
C217        C  0.80324743  0.75010089  0.98953970     0.87400
C218        C  0.83408494  0.75685224  0.99060889    -0.52800
C219        C  0.84905882  0.77196973  0.00028980     0.10400
C220        C  0.83111794  0.77910682  0.00810269     0.21300
C221        C  0.78831376  0.73410862  0.00073783    -0.53500
C222        C  0.80279961  0.74893267  0.01053649     0.10500
C223        C  0.80698157  0.77940487  0.99049576    -0.53100
C224        C  0.82164108  0.79510731  0.00003445     0.11000
H225        H  0.84266694  0.74922107  0.98431526     0.15600
H226        H  0.84295721  0.79139754  0.01596657     0.01300
H227        H  0.76848250  0.71243876  0.00093958     0.15900
H228        H  0.79843203  0.78697348  0.98396986     0.15700
O229        O  0.38754754  0.02317997  0.12418941    -0.56900
C230        C  0.39378731  0.03098038  0.08972101     0.75800
O231        O  0.45008305  0.10624069  0.10460724    -0.58000
C232        C  0.40363641  0.02569559  0.13257794     0.75700
C233        C  0.47962570  0.05326501  0.10923001     0.78100
Cd234      Cd  0.42837560  0.05486757  0.11086132     1.37500
O235        O  0.38430023  0.03757675  0.09814154    -0.56900
O236        O  0.45423889  0.03019166  0.10951104    -0.55700
C237        C  0.44169982  0.11333473  0.11324348     0.78100
O238        O  0.48134352  0.07708170  0.10958031    -0.58000
O239        O  0.41787138  0.03372786  0.09132091    -0.56500
O240        O  0.43068851  0.03991164  0.13069747    -0.56500
O241        O  0.42821636  0.09396730  0.12082706    -0.55700
O242        O  0.33212317  0.00172142  0.21541969    -0.56900
C243        C  0.38111034  0.02631377  0.25478220     0.75800
O244        O  0.31834263  0.03537636  0.24371380    -0.58000
C245        C  0.35466463  0.00184935  0.21344275     0.75700
C246        C  0.28373152  0.95306923  0.24047587     0.78100
Cd247      Cd  0.33849330  0.00819103  0.23631364     1.37500
O248        O  0.38556240  0.04229196  0.24617041    -0.56900
O249        O  0.30699453  0.95428968  0.23870028    -0.55700
C250        C  0.33078725  0.05584507  0.23644813     0.78100
O251        O  0.28588128  0.97705870  0.24045098    -0.58000
O252        O  0.35776056  0.00119794  0.25461662    -0.56500
O253        O  0.36995480  0.00429734  0.22210938    -0.56500
O254        O  0.34617331  0.05397867  0.22899722    -0.55700
O255        O  0.07850852  0.76232948  0.24633663    -0.56900
C256        C  0.00275097  0.72585029  0.24004311     0.75800
O257        O  0.03342674  0.67117950  0.22885179    -0.58000
C258        C  0.10134022  0.76214915  0.24674236     0.75700
C259        C  0.02408707  0.66958523  0.26200374     0.78100
Cd260      Cd  0.04446448  0.71007533  0.24268685     1.37500
O261        O  0.01544024  0.72892299  0.24955850    -0.56900
O262        O  0.05028643  0.69104751  0.26123262    -0.55700
C263        C  0.04877928  0.68798564  0.22072940     0.78100
O264        O  0.00767269  0.66561292  0.25355823    -0.58000
O265        O  0.00963424  0.71603326  0.23185516    -0.56500
O266        O  0.09785984  0.73758154  0.24588032    -0.56500
O267        O  0.06319960  0.71487478  0.22287521    -0.55700
O268        O  0.03052363  0.64781250  0.10434188    -0.56900
C269        C  0.02262340  0.63053772  0.14057092     0.75800
O270        O  0.94278301  0.58106265  0.11836410    -0.58000
C271        C  0.01201037  0.63772841  0.09618012     0.75700
C272        C  0.00188386  0.55915583  0.11439448     0.78100
Cd273      Cd  0.99680860  0.60790409  0.11811766     1.37500
O274        O  0.03296463  0.64646595  0.13169221    -0.56900
O275        O  0.02379692  0.58517514  0.11389984    -0.55700
C276        C  0.94246170  0.60341993  0.12022407     0.78100
O277        O  0.97770431  0.55561280  0.11663505    -0.58000
O278        O  0.00153061  0.60451698  0.13894924    -0.56500
O279        O  0.98798212  0.61411897  0.09814180    -0.56500
O280        O  0.96690740  0.62701796  0.12181441    -0.55700
O281        O  0.67017420  0.05820121  0.10965579    -0.56900
C282        C  0.75452295  0.09385440  0.11405712     0.75800
O283        O  0.69917150  0.00420580  0.12742768    -0.58000
C284        C  0.64559867  0.03431763  0.10902029     0.75700
C285        C  0.71083863  0.02076755  0.09075185     0.78100
Cd286      Cd  0.69985664  0.03826388  0.11244673     1.37500
O287        O  0.73044970  0.09165856  0.11386565    -0.56900
O288        O  0.70938438  0.04263380  0.09180149    -0.55700
C289        C  0.69722478  0.01740455  0.13585516     0.78100
O290        O  0.70540792  0.00524243  0.09968685    -0.58000
O291        O  0.75335443  0.07038812  0.11363063    -0.56500
O292        O  0.64565468  0.01144532  0.10970420    -0.56500
O293        O  0.69554113  0.03869603  0.13335809    -0.55700
O294        O  0.74900390  0.01793040  0.24763629    -0.56900
C295        C  0.73512848  0.98307221  0.21446008     0.75800
O296        O  0.80822536  0.03149877  0.22666906    -0.58000
C297        C  0.74043861  0.00180809  0.25645797     0.75700
C298        C  0.76737745  0.94033284  0.23940164     0.78100
Cd299      Cd  0.76470854  0.99084098  0.23653683     1.37500
O300        O  0.73615170  0.99970978  0.22211713    -0.56900
O301        O  0.74344483  0.93827892  0.24048131    -0.55700
C302        C  0.82428008  0.04159563  0.23551339     0.78100
O303        O  0.78966204  0.96549364  0.23739409    -0.58000
O304        O  0.74588708  0.96878348  0.21723221    -0.56500
O305        O  0.74077199  0.97916342  0.25582667    -0.56500
O306        O  0.81325468  0.02789921  0.24478488    -0.55700
O307        O  0.03532871  0.32722236  0.12688822    -0.56900
C308        C  0.01842351  0.32138664  0.09178916     0.75800
O309        O  0.94790788  0.29805046  0.11648416    -0.58000
C310        C  0.02933449  0.33597872  0.13573146     0.75700
C311        C  0.00059405  0.38205868  0.11105477     0.78100
Cd312      Cd  0.00116290  0.33036472  0.11386521     1.37500
O313        O  0.03513194  0.32840076  0.10045623    -0.56900
O314        O  0.02445051  0.38372407  0.11060671    -0.55700
C315        C  0.94700437  0.27470530  0.11681142     0.78100
O316        O  0.97781289  0.35698457  0.11259565    -0.58000
O317        O  0.99529337  0.32049992  0.09323393    -0.56500
O318        O  0.01171712  0.34356942  0.13433524    -0.56500
O319        O  0.97110155  0.27715952  0.11620882    -0.55700
O320        O  0.06440936  0.29156267  0.21791182    -0.56900
C321        C  0.04471334  0.31970202  0.25570798     0.75800
O322        O  0.01826558  0.24510675  0.23021604    -0.58000
C323        C  0.06283772  0.31316171  0.21592113     0.75700
C324        C  0.11230434  0.29292542  0.24254550     0.78100
Cd325      Cd  0.05892113  0.29083298  0.23888978     1.37500
O326        O  0.02821583  0.30561371  0.24731448    -0.56900
O327        O  0.11300979  0.31494449  0.23888462    -0.55700
C328        C  0.00903011  0.23097363  0.23952366     0.78100
O329        O  0.08748043  0.27098681  0.24515976    -0.58000
O330        O  0.06875884  0.32177392  0.25619704    -0.56500
O331        O  0.06029319  0.32522986  0.22457827    -0.56500
O332        O  0.02300486  0.24422690  0.24853093    -0.55700
O333        O  0.47616784  0.36543573  0.10321498    -0.56900
C334        C  0.43980838  0.28771862  0.10875861     0.75800
O335        O  0.38678357  0.32184429  0.12191573    -0.58000
C336        C  0.47578874  0.38800487  0.10416402     0.75700
C337        C  0.38439196  0.30960760  0.08813714     0.78100
Cd338      Cd  0.42451822  0.32999543  0.10766326     1.37500
O339        O  0.44576411  0.30395250  0.10007342    -0.56900
O340        O  0.40438985  0.33624970  0.08933819    -0.55700
C341        C  0.40427933  0.33196457  0.13040103     0.78100
O342        O  0.38129462  0.29304624  0.09635726    -0.58000
O343        O  0.42765306  0.29157726  0.11701211    -0.56500
O344        O  0.45135254  0.38394937  0.10634553    -0.56500
O345        O  0.43058520  0.34174907  0.12826282    -0.55700
O346        O  0.38471912  0.30840537  0.24737841    -0.56900
C347        C  0.35936090  0.31263588  0.21212510     0.75800
O348        O  0.31665626  0.23712413  0.24092091    -0.58000
C349        C  0.37629800  0.31619937  0.25576078     0.75700
C350        C  0.28911602  0.29254796  0.23678653     0.78100
Cd351      Cd  0.33992036  0.28975503  0.23519123     1.37500
O352        O  0.37653771  0.32419111  0.22066239    -0.56900
O353        O  0.31399715  0.31427065  0.23399521    -0.55700
C354        C  0.33239304  0.23352418  0.23425944     0.78100
O355        O  0.28738515  0.26908802  0.23896250    -0.58000
O356        O  0.33355597  0.29192738  0.21436199    -0.56500
O357        O  0.35253494  0.31419394  0.25429849    -0.56500
O358        O  0.34991615  0.25497786  0.22805881    -0.55700
O359        O  0.74671563  0.67660839  0.22008781    -0.56900
C360        C  0.74574680  0.67100270  0.25426044     0.75800
O361        O  0.81894140  0.73556679  0.24596527    -0.58000
C362        C  0.75098696  0.69463414  0.21226738     0.75700
C363        C  0.76641317  0.76284057  0.23929219     0.78100
Cd364      Cd  0.77160057  0.71415327  0.23575991     1.37500
O365        O  0.76359723  0.67223549  0.24719204    -0.56900
O366        O  0.74423632  0.73689010  0.23938435    -0.55700
C367        C  0.83214341  0.73390397  0.23752269     0.78100
O368        O  0.79083968  0.76614338  0.23801747    -0.58000
O369        O  0.73782533  0.68824461  0.25237278    -0.56500
O370        O  0.76325151  0.72070543  0.21539842    -0.56500
O371        O  0.81789321  0.72461839  0.22821224    -0.55700
O372        O  0.69171829  0.57135515  0.10273103    -0.56900
C373        C  0.77725644  0.62131408  0.10996457     0.75800
O374        O  0.73828134  0.66759309  0.09640598    -0.58000
C375        C  0.66839774  0.57023739  0.10406097     0.75700
C376        C  0.72284805  0.63555861  0.13168085     0.78100
Cd377      Cd  0.72578845  0.62267659  0.10777515     1.37500
O378        O  0.75229874  0.59833299  0.10832232    -0.56900
O379        O  0.72170933  0.61322604  0.12844662    -0.55700
C380        C  0.73920622  0.65743830  0.08681389     0.78100
O381        O  0.72469571  0.65252811  0.12378753    -0.58000
O382        O  0.77850054  0.64482875  0.11032239    -0.56500
O383        O  0.67122389  0.59381977  0.10678990    -0.56500
O384        O  0.73280581  0.63166129  0.08699139    -0.55700
C385        C  0.47326916  0.08905390  0.35071798     0.87400
C386        C  0.47373739  0.11671675  0.34904786    -0.52800
C387        C  0.48861740  0.13277068  0.33958824     0.10400
C388        C  0.50188739  0.11931607  0.33253267     0.21300
C389        C  0.46087209  0.07257100  0.33935355    -0.53500
C390        C  0.47550081  0.08824409  0.32975074     0.10500
C391        C  0.50526860  0.09912274  0.35075955    -0.53100
C392        C  0.52043955  0.11459846  0.34122577     0.11000
H393        H  0.46284110  0.12293013  0.35485387     0.15600
H394        H  0.51414608  0.13236322  0.32488430     0.01300
H395        H  0.44148237  0.05067410  0.33891670     0.15900
H396        H  0.51446426  0.09275073  0.35748856     0.15700
C397        C  0.13739148  0.42918082  0.66282365     0.87400
C398        C  0.16800293  0.43511306  0.66338163    -0.52800
C399        C  0.18402339  0.45026872  0.67276455     0.10400
C400        C  0.16770571  0.45813194  0.68099529     0.21300
C401        C  0.12318837  0.41381958  0.67419962    -0.53500
C402        C  0.13892106  0.42879324  0.68378127     0.10500
C403        C  0.14250336  0.45927575  0.66382962    -0.53100
C404        C  0.15819498  0.47461668  0.67334129     0.11000
H405        H  0.17676267  0.42811607  0.65689861     0.15600
H406        H  0.18078656  0.47057099  0.68864335     0.01300
H407        H  0.10267207  0.39270606  0.67455753     0.15900
H408        H  0.13358626  0.46725032  0.65766197     0.15700
C409        C  0.71368385  0.59105173  0.35120641     0.87400
C410        C  0.74154700  0.59147386  0.34991647    -0.52800
C411        C  0.74030482  0.57419187  0.34127634     0.10400
C412        C  0.71126153  0.55845128  0.33448607     0.21300
C413        C  0.70869387  0.59979631  0.33929096    -0.53500
C414        C  0.70773590  0.58312683  0.33046835     0.10500
C415        C  0.68925081  0.55886012  0.35244155    -0.53100
C416        C  0.68772161  0.54161348  0.34375496     0.11000
H417        H  0.76026424  0.60364904  0.35561653     0.15600
H418        H  0.71028409  0.54455990  0.32743163     0.01300
H419        H  0.70734993  0.61841927  0.33784182     0.15900
H420        H  0.67428585  0.55050162  0.35962734     0.15700
C421        C  0.45975234  0.32766864  0.35250514     0.87400
C422        C  0.49225544  0.35195274  0.35251716    -0.52800
C423        C  0.50715120  0.35216107  0.34318174     0.10400
C424        C  0.48794880  0.32732891  0.33464738     0.21300
C425        C  0.44804518  0.33096489  0.34094503    -0.53500
C426        C  0.46254078  0.33059903  0.33149294     0.10500
C427        C  0.45885030  0.29958757  0.35122707    -0.53100
C428        C  0.47356679  0.29925846  0.34193364     0.11000
H429        H  0.50234964  0.36830061  0.35921491     0.15600
H430        H  0.50010430  0.32711807  0.32716888     0.01300
H431        H  0.42939546  0.33263692  0.34041973     0.15900
H432        H  0.44748891  0.28131544  0.35711347     0.15700
C433        C  0.95322984  0.57852702  0.35910025     0.87400
C434        C  0.94363278  0.54688057  0.35791786    -0.52800
C435        C  0.92946755  0.53393549  0.34785863     0.10400
C436        C  0.92538222  0.55410578  0.33992731     0.21300
C437        C  0.97103431  0.59376281  0.34824449    -0.53500
C438        C  0.95659016  0.58131260  0.33811160     0.10500
C439        C  0.92527011  0.57782352  0.35744665    -0.53100
C440        C  0.91069222  0.56529339  0.34742704     0.11000
H441        H  0.94939840  0.53635628  0.36427062     0.15600
H442        H  0.91310176  0.54344028  0.33192340     0.01300
H443        H  0.99301513  0.61315767  0.34865974     0.15900
H444        H  0.91816432  0.58770706  0.36335351     0.15700
C445        C  0.62659726  0.66145017  0.65569297     0.87400
C446        C  0.61591908  0.68187294  0.65545982    -0.52800
C447        C  0.60148904  0.68058067  0.66517726     0.10400
C448        C  0.59856973  0.65836670  0.67418380     0.21300
C449        C  0.64472752  0.66936449  0.66677552    -0.53500
C450        C  0.63027386  0.66777816  0.67651806     0.10500
C451        C  0.59925752  0.63124573  0.65800562    -0.53100
C452        C  0.58451414  0.62932367  0.66766325     0.11000
H453        H  0.62083829  0.69734880  0.64862883     0.15600
H454        H  0.58657088  0.65692231  0.68202327     0.01300
H455        H  0.66702690  0.67518121  0.66682749     0.15900
H456        H  0.59234714  0.61273946  0.65247839     0.15700
C457        C  0.59658729  0.85390468  0.67185165     0.87400
C458        C  0.61020782  0.86854429  0.68344909    -0.52800
C459        C  0.61553229  0.89563165  0.68460644     0.10400
C460        C  0.60734278  0.90605650  0.67382359     0.21300
C461        C  0.56935049  0.85488840  0.67060308    -0.53500
C462        C  0.57480936  0.88214494  0.67180796     0.10500
C463        C  0.61793164  0.87567249  0.66294276    -0.53100
C464        C  0.62342556  0.90294841  0.66372338     0.11000
H465        H  0.61563504  0.85877649  0.69022048     0.15600
H466        H  0.61193111  0.92818883  0.67470103     0.01300
H467        H  0.54758475  0.83548146  0.66947513     0.15900
H468        H  0.62670609  0.86925939  0.65624555     0.15700
C469        C  0.36460689  0.40404052  0.66154160     0.87400
C470        C  0.39474616  0.43180904  0.66359000    -0.52800
C471        C  0.39697147  0.44656683  0.67329124     0.10400
C472        C  0.36847558  0.43188049  0.68020832     0.21300
C473        C  0.35807914  0.38610978  0.67258823    -0.53500
C474        C  0.36023456  0.40058908  0.68244849     0.10500
C475        C  0.34346904  0.41394933  0.66178354    -0.53100
C476        C  0.34526336  0.42823199  0.67161955     0.11000
H477        H  0.41273816  0.43944176  0.65768877     0.15600
H478        H  0.37033150  0.44408609  0.68804318     0.01300
H479        H  0.35229854  0.36390191  0.67245794     0.15900
H480        H  0.32768558  0.40920862  0.65504028     0.15700
C481        C  0.12032197  0.65925809  0.69473032     0.87400
C482        C  0.14814851  0.68980265  0.69360830    -0.52800
C483        C  0.16442560  0.69394710  0.68412735     0.10400
C484        C  0.15098948  0.66661370  0.67649118     0.21300
C485        C  0.10379806  0.65426836  0.68336142    -0.53500
C486        C  0.11970919  0.65824926  0.67373735     0.10500
C487        C  0.13073030  0.63867957  0.69418804    -0.53100
C488        C  0.14661549  0.64219264  0.68463278     0.11000
H489        H  0.15441166  0.70675486  0.69988609     0.15600
H490        H  0.16403578  0.66981031  0.66875453     0.01300
H491        H  0.08161809  0.64879179  0.68302772     0.15900
H492        H  0.12482457  0.62178563  0.70051268     0.15700
C493        C  0.38644432  0.92313222  0.68906018     0.87400
C494        C  0.41061454  0.91744391  0.68864388    -0.52800
C495        C  0.40936485  0.90201286  0.67926100     0.10400
C496        C  0.38310240  0.89305043  0.67117825     0.21300
C497        C  0.38852119  0.93779359  0.67750910    -0.53500
C498        C  0.38694016  0.92232625  0.66805548     0.10500
C499        C  0.35818962  0.89305586  0.68829834    -0.53100
C500        C  0.35573228  0.87715763  0.67894089     0.11000
H501        H  0.42749023  0.92523767  0.69517078     0.15600
H502        H  0.38150156  0.88023766  0.66358868     0.01300
H503        H  0.39170871  0.95898135  0.67696174     0.15900
H504        H  0.34114412  0.88518725  0.69467341     0.15700
C505        C  0.71771490  0.08821751  0.32572575     0.87400
C506        C  0.74613248  0.11761949  0.32812137    -0.52800
C507        C  0.74577271  0.13145598  0.33771338     0.10400
C508        C  0.71660435  0.11421829  0.34420683     0.21300
C509        C  0.71193986  0.07062158  0.33684691    -0.53500
C510        C  0.71144999  0.08413614  0.34653295     0.10500
C511        C  0.69399796  0.09464283  0.32549895    -0.53100
C512        C  0.69308572  0.10816398  0.33513415     0.11000
H513        H  0.76498785  0.12688687  0.32256665     0.15600
H514        H  0.71634560  0.12523773  0.35207781     0.01300
H515        H  0.70864363  0.04941428  0.33720418     0.15900
H516        H  0.67875807  0.08813009  0.31837774     0.15700
C517        C  0.97328669  0.35343330  0.32571946     0.87400
C518        C  0.96206902  0.37329105  0.32593357    -0.52800
C519        C  0.94659748  0.37040172  0.33557452     0.10400
C520        C  0.94344151  0.34709043  0.34411760     0.21300
C521        C  0.99059368  0.36005631  0.33699098    -0.53500
C522        C  0.97510790  0.35654934  0.34664433     0.10500
C523        C  0.94618067  0.32262936  0.32741034    -0.53100
C524        C  0.93034341  0.31910642  0.33695267     0.11000
H525        H  0.96719657  0.38910175  0.31919637     0.15600
H526        H  0.93083107  0.34420225  0.35196033     0.01300
H527        H  0.01301117  0.36630229  0.33741266     0.15900
H528        H  0.94010763  0.30497599  0.32151707     0.15700
O529        O  0.48052938  0.35971612  0.56703858    -0.56900
C530        C  0.42276683  0.27636030  0.57194802     0.75800
O531        O  0.39123753  0.33176816  0.58276375    -0.58000
C532        C  0.48467491  0.38417006  0.56901548     0.75700
C533        C  0.40511669  0.33365595  0.54756595     0.78100
Cd534      Cd  0.42726170  0.33099930  0.57011078     1.37500
O535        O  0.44693638  0.30076156  0.57181654    -0.56900
O536        O  0.39948505  0.34254521  0.55647139    -0.55700
C537        C  0.40486777  0.33465994  0.59203898     0.78100
O538        O  0.41928488  0.32217010  0.54915944    -0.58000
O539        O  0.40007370  0.27684938  0.57135197    -0.56500
O540        O  0.46248384  0.38407524  0.57165402    -0.56500
O541        O  0.42760457  0.33452758  0.59117075    -0.55700
O542        O  0.40396059  0.43675752  0.44281142    -0.56900
C543        C  0.31783353  0.37584726  0.44142547     0.75800
O544        O  0.37561575  0.34828569  0.43027529    -0.58000
C545        C  0.42693858  0.43900245  0.44635262     0.75700
C546        C  0.37398450  0.36278958  0.46696038     0.78100
Cd547      Cd  0.37371877  0.38296547  0.44383801     1.37500
O548        O  0.34165309  0.40054870  0.44173613    -0.56900
O549        O  0.36914126  0.38225500  0.46494315    -0.55700
C550        C  0.38709296  0.36672062  0.42215624     0.78100
O551        O  0.37726822  0.35129067  0.45825032    -0.58000
O552        O  0.31959705  0.35398253  0.44190843    -0.56500
O553        O  0.42486336  0.41564299  0.44888494    -0.56500
O554        O  0.39107607  0.39112982  0.42401716    -0.55700
O555        O  0.03603625  0.64576311  0.59057010    -0.56900
C556        C  0.01939655  0.64141100  0.55418532     0.75800
O557        O  0.97378685  0.56098040  0.57404449    -0.58000
C558        C  0.02201222  0.63020622  0.59919933     0.75700
C559        C  0.94415245  0.61455144  0.57742494     0.78100
Cd560      Cd  0.99629548  0.61414612  0.57628445     1.37500
O561        O  0.03471683  0.65207273  0.56323672    -0.56900
O562        O  0.96933589  0.63789117  0.57807759    -0.55700
C563        C  0.99789290  0.56340271  0.57308531     0.78100
O564        O  0.94311650  0.59117708  0.57652372    -0.58000
O565        O  0.99360439  0.61965640  0.55551297    -0.56500
O566        O  0.99619390  0.60895175  0.59727571    -0.56500
O567        O  0.02059667  0.58883777  0.57353734    -0.55700
O568        O  0.12228830  0.63582864  0.45160196    -0.56900
C569        C  0.15325587  0.71951305  0.44971860     0.75800
O570        O  0.06118912  0.65808445  0.43859916    -0.58000
C571        C  0.10008405  0.61211217  0.45507505     0.75700
C572        C  0.07764030  0.66623620  0.47434267     0.78100
Cd573      Cd  0.09941241  0.66336870  0.45230686     1.37500
O574        O  0.15226862  0.69648487  0.45171067    -0.56900
O575        O  0.06200412  0.65944364  0.46535488    -0.55700
C576        C  0.06871510  0.64854872  0.43047644     0.78100
O577        O  0.10316473  0.67230006  0.47305148    -0.58000
O578        O  0.12902679  0.71691102  0.44871128    -0.56500
O579        O  0.07818939  0.61250830  0.45780050    -0.56500
O580        O  0.09038488  0.64703982  0.43240538    -0.55700
O581        O  0.35821599  0.91003922  0.44608576    -0.56900
C582        C  0.44222545  0.95571937  0.44803582     0.75800
O583        O  0.41075005  0.00689197  0.43536138    -0.58000
C584        C  0.33569799  0.91072258  0.44539039     0.75700
C585        C  0.38991522  0.98204671  0.46945394     0.78100
Cd586      Cd  0.39356347  0.96215574  0.44694211     1.37500
O587        O  0.41705311  0.93499031  0.44502357    -0.56900
O588        O  0.38214371  0.95618942  0.46764643    -0.55700
C589        C  0.40373356  0.99452994  0.42567570     0.78100
O590        O  0.39931643  0.99899221  0.46085749    -0.58000
O591        O  0.44486671  0.97916045  0.45072105    -0.56500
O592        O  0.33972640  0.93563112  0.44503460    -0.56500
O593        O  0.39105338  0.96721565  0.42579694    -0.55700
O594        O  0.39326471  0.01631393  0.55868559    -0.56900
C595        C  0.41479258  0.02030450  0.59363608     0.75800
O596        O  0.48707846  0.07797655  0.57307066    -0.58000
C597        C  0.40412194  0.03223776  0.54981741     0.75700
C598        C  0.43444028  0.10596669  0.57379020     0.78100
Cd599      Cd  0.43301881  0.05318135  0.57187685     1.37500
O600        O  0.42124595  0.01160428  0.58493581    -0.56900
O601        O  0.41060812  0.08113520  0.57348596    -0.55700
C602        C  0.48661306  0.05789691  0.56768234     0.78100
O603        O  0.45767573  0.10638905  0.57367125    -0.58000
O604        O  0.41503075  0.04312344  0.59219306    -0.56500
O605        O  0.42638811  0.05754495  0.55141495    -0.56500
O606        O  0.46210870  0.03710879  0.56413557    -0.55700
O607        O  0.94912120  0.30246148  0.56863421    -0.56900
C608        C  0.99644913  0.38708960  0.56630169     0.75800
O609        O  0.03692412  0.34410372  0.58361352    -0.58000
C610        C  0.95041579  0.28059562  0.57049681     0.75700
C611        C  0.02471864  0.33638118  0.54709205     0.78100
Cd612      Cd  0.00097777  0.33803016  0.56885316     1.37500
O613        O  0.97412066  0.36131471  0.56593423    -0.56900
O614        O  0.99773391  0.32163379  0.54909454    -0.55700
C615        C  0.02434429  0.34768308  0.59184589     0.78100
O616        O  0.04143005  0.35138505  0.55534992    -0.58000
O617        O  0.02083648  0.39009147  0.56724095    -0.56500
O618        O  0.97550153  0.28527601  0.57188562    -0.56500
O619        O  0.00075251  0.34535184  0.58948228    -0.55700
O620        O  0.05609352  0.34480636  0.45752380    -0.56900
C621        C  0.06031511  0.36358481  0.42171849     0.75800
O622        O  0.11853537  0.43476316  0.44196581    -0.58000
C623        C  0.07243678  0.35796651  0.46613346     0.75700
C624        C  0.14298194  0.37977308  0.44169516     0.78100
Cd625      Cd  0.09188669  0.38143994  0.44337811     1.37500
O626        O  0.04818810  0.34907004  0.43077447    -0.56900
O627        O  0.11784826  0.35629399  0.44163657    -0.55700
C628        C  0.09822648  0.43638685  0.44588547     0.78100
O629        O  0.14397164  0.40311137  0.44222328    -0.58000
O630        O  0.08676543  0.38425735  0.42266769    -0.56500
O631        O  0.09713491  0.38072310  0.46405366    -0.56500
O632        O  0.07499663  0.41266542  0.44863569    -0.55700
O633        O  0.70040556  0.67850805  0.45590993    -0.56900
C634        C  0.69412563  0.67279869  0.42181661     0.75800
O635        O  0.61519436  0.65078225  0.43840945    -0.58000
C636        C  0.69347187  0.68773442  0.46431298     0.75700
C637        C  0.67155860  0.73486467  0.43906310     0.78100
Cd638      Cd  0.66851772  0.68140235  0.44172876     1.37500
O639        O  0.69956724  0.66864623  0.43193173    -0.56900
O640        O  0.69445878  0.73522719  0.44093132    -0.55700
C641        C  0.61090476  0.62841856  0.44343022     0.78100
O642        O  0.64787951  0.71013289  0.43832207    -0.58000
O643        O  0.67841225  0.68275954  0.42084515    -0.56500
O644        O  0.67590356  0.69513118  0.46221774    -0.56500
O645        O  0.63307352  0.63042156  0.44770226    -0.55700
O646        O  0.72894649  0.66341902  0.54999833    -0.56900
C647        C  0.71489665  0.65125227  0.58501467     0.75800
O648        O  0.69188633  0.57473125  0.56281826    -0.58000
C649        C  0.73215559  0.65097841  0.54164734     0.75700
C650        C  0.77714735  0.63076929  0.57031708     0.78100
Cd651      Cd  0.72478909  0.62845272  0.56477159     1.37500
O652        O  0.71620039  0.66222408  0.57524441    -0.56900
O653        O  0.77774048  0.65391371  0.56917805    -0.55700
C654        C  0.66865597  0.57383223  0.56404705     0.78100
O655        O  0.75261107  0.60707463  0.56902309    -0.58000
O656        O  0.72017059  0.63173222  0.58535323    -0.56500
O657        O  0.73306043  0.62918840  0.54406116    -0.56500
O658        O  0.67142922  0.59792733  0.56515863    -0.55700
O659        O  0.70878654  0.00821870  0.43121843    -0.56900
C660        C  0.69444218  0.98027488  0.46676368     0.75800
O661        O  0.62133180  0.93921864  0.44304975    -0.58000
C662        C  0.69462581  0.99663318  0.42199455     0.75700
C663        C  0.68113086  0.91627203  0.44012910     0.78100
Cd664      Cd  0.67522251  0.96428017  0.44329229     1.37500
O665        O  0.70845813  0.99792726  0.45860858    -0.56900
O666        O  0.70320313  0.94176902  0.44191335    -0.55700
C667        C  0.62226986  0.96216743  0.44517879     0.78100
O668        O  0.65660632  0.91318706  0.43958249    -0.58000
O669        O  0.67284653  0.95536061  0.46397127    -0.56500
O670        O  0.67354193  0.97030838  0.42265019    -0.56500
O671        O  0.64723256  0.98525283  0.44647490    -0.55700
O672        O  0.73783719  0.09535428  0.57075469    -0.56900
C673        C  0.65857635  0.05094783  0.56938445     0.75800
O674        O  0.69212869  0.00410184  0.55663552    -0.58000
C675        C  0.76130372  0.09687923  0.57237756     0.75700
C676        C  0.69666714  0.01337160  0.59257362     0.78100
Cd677      Cd  0.70567039  0.04322363  0.57094149     1.37500
O678        O  0.68351993  0.07067259  0.57305820    -0.56900
O679        O  0.70726707  0.00815945  0.58410180    -0.55700
C680        C  0.70567060  0.02164658  0.54842827     0.78100
O681        O  0.69070493  0.03212022  0.59099092    -0.58000
O682        O  0.65517630  0.02728913  0.56636513    -0.56500
O683        O  0.75937111  0.07309460  0.57371854    -0.56500
O684        O  0.71929120  0.04838291  0.55076279    -0.55700
C685        C  0.69553562  0.98731861  0.51873630     0.16900
C686        C  0.68590921  0.96914001  0.50909264    -0.32100
C687        C  0.69640836  0.98226754  0.49829806     0.21300
C688        C  0.71603420  0.01207333  0.49715547     0.03500
C689        C  0.72580004  0.03019784  0.50679594    -0.21900
C690        C  0.71490817  0.01714847  0.51754989     0.12700
S691        S  0.68409335  0.97600105  0.53252276    -0.05500
C692        C  0.70530853  0.01191071  0.53666375    -0.09000
C693        C  0.72061889  0.03132599  0.52779633    -0.25600
S694        S  0.72516952  0.02390981  0.48328060    -0.02800
C695        C  0.70187847  0.98839532  0.47893387    -0.16200
C696        C  0.68823632  0.96856616  0.48786255    -0.14200
H697        H  0.67033607  0.94589085  0.50992799     0.21100
H698        H  0.74065694  0.05354725  0.50592151     0.17200
H699        H  0.73463976  0.05472263  0.52874834     0.19700
H700        H  0.67240510  0.94545528  0.48675337     0.13000
C701        C  0.71392428  0.69268308  0.49617830     0.16900
C702        C  0.71609833  0.69622466  0.50813329    -0.32100
C703        C  0.72528307  0.68103325  0.51452160     0.21300
C704        C  0.73247866  0.66349273  0.50922478     0.03500
C705        C  0.73111003  0.66061295  0.49724803    -0.21900
C706        C  0.72145676  0.67541277  0.49088139     0.12700
S707        S  0.70003359  0.70652200  0.48705763    -0.05500
C708        C  0.70442296  0.68885092  0.47600077    -0.09000
C709        C  0.71640675  0.67344745  0.47926862    -0.25600
S710        S  0.74028593  0.64462123  0.51851551    -0.02800
C711        C  0.73358674  0.66034902  0.52966564    -0.16200
C712        C  0.72625821  0.67961146  0.52627180    -0.14200
H713        H  0.70969065  0.70923173  0.51231229     0.21100
H714        H  0.73614377  0.64646708  0.49311215     0.17200
H715        H  0.71983901  0.66030614  0.47354657     0.19700
H716        H  0.72035125  0.69068729  0.53207380     0.13000
C717        C  0.66089872  0.79735592  0.43537010     0.16900
C718        C  0.64967513  0.81446237  0.43370234    -0.32100
C719        C  0.66805191  0.84420738  0.43612652     0.21300
C720        C  0.69653536  0.85655627  0.43987404     0.03500
C721        C  0.70788144  0.83946160  0.44143662    -0.21900
C722        C  0.68934417  0.80957812  0.43915173     0.12700
S723        S  0.64148412  0.76062203  0.43350574    -0.05500
C724        C  0.67195154  0.76159729  0.43787813    -0.09000
C725        C  0.69588785  0.78912007  0.44055440    -0.25600
S726        S  0.71488807  0.89293111  0.44272272    -0.02800
C727        C  0.68366889  0.89128250  0.43899781    -0.16200
C728        C  0.66056845  0.86401594  0.43559629    -0.14200
H729        H  0.62736034  0.80487872  0.43088494     0.21100
H730        H  0.72997632  0.84892469  0.44451267     0.17200
H731        H  0.71669100  0.79379498  0.44360449     0.19700
H732        H  0.63919950  0.85881626  0.43311162     0.13000
C733        C  0.88664258  0.20071894  0.57208394     0.16900
C734        C  0.86804568  0.17037645  0.57310243    -0.32100
C735        C  0.83791933  0.15804341  0.57256208     0.21300
C736        C  0.82695413  0.17517400  0.57101896     0.03500
C737        C  0.84544618  0.20529627  0.56992519    -0.21900
C738        C  0.87537686  0.21756027  0.57052000     0.12700
S739        S  0.92385738  0.22031132  0.57273514    -0.05500
C740        C  0.92384162  0.25127409  0.57093145    -0.09000
C741        C  0.89655343  0.24647464  0.56980882    -0.25600
S742        S  0.79004957  0.15657165  0.57055413    -0.02800
C743        C  0.78911569  0.12519693  0.57242722    -0.16200
C744        C  0.81612844  0.12908632  0.57338815    -0.14200
H745        H  0.87663071  0.15704646  0.57432189     0.21100
H746        H  0.83685866  0.21863575  0.56872092     0.17200
H747        H  0.89239705  0.26331749  0.56861117     0.19700
H748        H  0.81958933  0.11174991  0.57449331     0.13000
C749        C  0.06149010  0.35011044  0.51787342     0.16900
C750        C  0.07996903  0.36259589  0.50841878    -0.32100
C751        C  0.06801828  0.35185447  0.49749623     0.21300
C752        C  0.03909964  0.32921560  0.49599090     0.03500
C753        C  0.02065486  0.31638787  0.50548809    -0.21900
C754        C  0.03247904  0.32762070  0.51642217     0.12700
S755        S  0.07123535  0.36204069  0.53169383    -0.05500
C756        C  0.03570779  0.33691603  0.53556805    -0.09000
C757        C  0.01759360  0.31984467  0.52658226    -0.25600
S758        S  0.02859876  0.32068497  0.48189920    -0.02800
C759        C  0.06344712  0.34828559  0.47806800    -0.16200
C760        C  0.08205549  0.36273678  0.48727828    -0.14200
H761        H  0.10244172  0.38064660  0.50948949     0.21100
H762        H  0.99786480  0.29917425  0.50437283     0.17200
H763        H  0.99445602  0.30353110  0.52735355     0.19700
H764        H  0.10450128  0.38102995  0.48653344     0.13000
C765        C  0.54552577  0.04308394  0.56314745     0.16900
C766        C  0.56051598  0.02973629  0.56143786    -0.32100
C767        C  0.58971981  0.04492976  0.56492387     0.21300
C768        C  0.60360726  0.07245162  0.56971418     0.03500
C769        C  0.58863194  0.08591657  0.57136265    -0.21900
C770        C  0.55919571  0.07045710  0.56806536     0.12700
S771        S  0.50952104  0.02721182  0.56020090    -0.05500
C772        C  0.51258849  0.05740131  0.56591702    -0.09000
C773        C  0.54033850  0.07890635  0.56964581    -0.25600
S774        S  0.63903703  0.08699842  0.57354191    -0.02800
C775        C  0.63488013  0.05552458  0.56872886    -0.16200
C776        C  0.60754787  0.03506169  0.56435423    -0.14200
H777        H  0.54968645  0.00815076  0.55779264     0.21100
H778        H  0.59925811  0.10718268  0.57528131     0.17200
H779        H  0.54610662  0.09901357  0.57368938     0.19700
H780        H  0.60102652  0.01404051  0.56100807     0.13000
C781        C  0.50131685  0.93955958  0.44603792     0.16900
C782        C  0.51776340  0.92775445  0.44403863    -0.32100
C783        C  0.54809854  0.94607174  0.44554930     0.21300
C784        C  0.56137623  0.97479962  0.44890393     0.03500
C785        C  0.54496622  0.98649943  0.45096242    -0.21900
C786        C  0.51473927  0.96825811  0.44944341     0.12700
S787        S  0.46438753  0.92142826  0.44431825    -0.05500
C788        C  0.46724449  0.95295983  0.44816371    -0.09000
C789        C  0.49531204  0.97600531  0.45073958    -0.25600
S790        S  0.59831861  0.99371216  0.45011728    -0.02800
C791        C  0.59601284  0.96259087  0.44615233    -0.16200
C792        C  0.56795951  0.93887561  0.44396351    -0.14200
H793        H  0.50741698  0.90539663  0.44133342     0.21100
H794        H  0.55535233  0.00895795  0.45353947     0.17200
H795        H  0.50129147  0.99752765  0.45316678     0.19700
H796        H  0.56244464  0.91765198  0.44132034     0.13000
C797        C  0.37769717  0.99549895  0.52038103     0.16900
C798        C  0.36893303  0.97618059  0.51112765    -0.32100
C799        C  0.37862584  0.98812887  0.50010429     0.21300
C800        C  0.39543179  0.01796060  0.49830704     0.03500
C801        C  0.40377868  0.03723184  0.50751711    -0.21900
C802        C  0.39491893  0.02530570  0.51856667     0.12700
S803        S  0.37142928  0.98553135  0.53457259    -0.05500
C804        C  0.39301924  0.02188701  0.53807634    -0.09000
C805        C  0.40358681  0.04049542  0.52866091    -0.25600
S806        S  0.40624655  0.02819224  0.48441305    -0.02800
C807        C  0.38856030  0.99192084  0.48100322    -0.16200
C808        C  0.37461839  0.97306131  0.49018785    -0.14200
H809        H  0.35625212  0.95287998  0.51252302     0.21100
H810        H  0.41768042  0.06053431  0.50619093     0.17200
H811        H  0.41838767  0.06392249  0.52918126     0.19700
H812        H  0.36283364  0.94959346  0.48969342     0.13000
C813        C  0.11665857  0.51401941  0.44781537     0.16900
C814        C  0.12947926  0.54411030  0.44735094    -0.32100
C815        C  0.11313456  0.55457166  0.45140725     0.21300
C816        C  0.08533611  0.53594062  0.45577132     0.03500
C817        C  0.07259039  0.50590994  0.45627754    -0.21900
C818        C  0.08884790  0.49544638  0.45217495     0.12700
S819        S  0.13265192  0.49689497  0.44320343    -0.05500
C820        C  0.10151668  0.46443048  0.44720970    -0.09000
C821        C  0.08002125  0.46694949  0.45183108    -0.25600
S822        S  0.06853692  0.55265834  0.45979805    -0.02800
C823        C  0.09916138  0.58508952  0.45546441    -0.16200
C824        C  0.12128380  0.58291302  0.45127493    -0.14200
H825        H  0.15109090  0.55868091  0.44386781     0.21100
H826        H  0.05079756  0.49129354  0.45959290     0.17200
H827        H  0.05907142  0.44888984  0.45480428     0.19700
H828        H  0.14175793  0.60092165  0.44791965     0.13000
C829        C  0.23155646  0.78634132  0.44823550     0.16900
C830        C  0.26186589  0.80544799  0.44826779    -0.32100
C831        C  0.27346373  0.83506018  0.44679749     0.21300
C832        C  0.25580154  0.84544252  0.44538168     0.03500
C833        C  0.22529107  0.82621813  0.44531887    -0.21900
C834        C  0.21361555  0.79640680  0.44677532     0.12700
S835        S  0.21364166  0.74972245  0.45000628    -0.05500
C836        C  0.18142592  0.74761608  0.44875192    -0.09000
C837        C  0.18461554  0.77413114  0.44705089    -0.25600
S838        S  0.27465462  0.88248416  0.44396657    -0.02800
C839        C  0.30646278  0.88364670  0.44526649    -0.16200
C840        C  0.30240668  0.85677100  0.44670085    -0.14200
H841        H  0.27584151  0.79756423  0.44943206     0.21100
H842        H  0.21132118  0.83412397  0.44423716     0.17200
H843        H  0.16676788  0.77694359  0.44614801     0.19700
H844        H  0.31978745  0.85330258  0.44778533     0.13000
C845        C  0.97945180  0.44545157  0.56681809     0.16900
C846        C  0.96634722  0.46104384  0.56733051    -0.32100
C847        C  0.98460203  0.49117712  0.56902206     0.21300
C848        C  0.01458364  0.50517498  0.57007299     0.03500
C849        C  0.02767474  0.48960275  0.56957006    -0.21900
C850        C  0.00941712  0.45948831  0.56793908     0.12700
S851        S  0.96108173  0.40866247  0.56517549    -0.05500
C852        C  0.99412348  0.41227455  0.56606703    -0.09000
C853        C  0.01797751  0.44056112  0.56749006    -0.25600
S854        S  0.03297029  0.54177699  0.57209274    -0.02800
C855        C  0.99991558  0.53822081  0.57162466    -0.16200
C856        C  0.97601310  0.51006932  0.56993822    -0.14200
H857        H  0.94294018  0.45013568  0.56655035     0.21100
H858        H  0.05105264  0.50045948  0.57048941     0.17200
H859        H  0.04031908  0.44685449  0.56842687     0.19700
H860        H  0.95361582  0.50378262  0.56943209     0.13000
C861        C  0.86889392  0.60340363  0.57610161     0.16900
C862        C  0.83925689  0.59246249  0.57467874    -0.32100
C863        C  0.83113964  0.61240918  0.57466543     0.21300
C864        C  0.85151523  0.64195136  0.57614518     0.03500
C865        C  0.88115858  0.65286805  0.57773537    -0.21900
C866        C  0.88935773  0.63293039  0.57759022     0.12700
S867        S  0.88326501  0.58290533  0.57571051    -0.05500
C868        C  0.91732238  0.61442313  0.57749787    -0.09000
C869        C  0.91722187  0.63938308  0.57843058    -0.25600
S870        S  0.83726304  0.66262832  0.57527960    -0.02800
C871        C  0.80357955  0.63111070  0.57281727    -0.16200
C872        C  0.80362019  0.60606128  0.57283596    -0.14200
H873        H  0.82328804  0.56945625  0.57336707     0.21100
H874        H  0.89721375  0.67595573  0.57875879     0.17200
H875        H  0.93654835  0.66114436  0.57943150     0.19700
H876        H  0.78460636  0.58437673  0.57127436     0.13000
C877        C  0.05915928  0.66938985  0.52539542     0.16900
C878        C  0.07939976  0.67928023  0.51645324    -0.32100
C879        C  0.06851014  0.67211801  0.50516246     0.21300
C880        C  0.03884156  0.65656925  0.50282515     0.03500
C881        C  0.01862386  0.64688361  0.51175606    -0.21900
C882        C  0.02947848  0.65330461  0.52306125     0.12700
S883        S  0.06777389  0.67344986  0.53972903    -0.05500
C884        C  0.03098742  0.65253856  0.54259548    -0.09000
C885        C  0.01324064  0.64360865  0.53288885    -0.25600
S886        S  0.03000611  0.64900808  0.48859369    -0.02800
C887        C  0.06662249  0.66626688  0.48579729    -0.16200
C888        C  0.08455429  0.67771378  0.49541820    -0.14200
H889        H  0.10256832  0.69110400  0.51824022     0.21100
H890        H  0.99541268  0.63399303  0.50999399     0.17200
H891        H  0.98965974  0.62967015  0.53300552     0.19700
H892        H  0.10803725  0.68874835  0.49532982     0.13000
C893        C  0.50504335  0.50556620  0.44911731     0.16900
C894        C  0.53524490  0.52456577  0.45046756    -0.32100
C895        C  0.54782679  0.55381546  0.44757069     0.21300
C896        C  0.53110473  0.56379387  0.44355454     0.03500
C897        C  0.50080233  0.54481485  0.44231635    -0.21900
C898        C  0.48821792  0.51547479  0.44514884     0.12700
S899        S  0.48601480  0.46912089  0.45166822    -0.05500
C900        C  0.45503034  0.46707281  0.44728219    -0.09000
C901        C  0.45934060  0.49341338  0.44411944    -0.25600
S902        S  0.55073251  0.59991880  0.44013960    -0.02800
C903        C  0.58171361  0.60152524  0.44419975    -0.16200
C904        C  0.57689172  0.57541370  0.44802156    -0.14200
H905        H  0.54841446  0.51679951  0.45347293     0.21100
H906        H  0.48770103  0.55247634  0.43910766     0.17200
H907        H  0.44244322  0.49614272  0.44097925     0.19700
H908        H  0.59378898  0.57230973  0.45080332     0.13000
C909        C  0.23988575  0.35841608  0.44086701     0.16900
C910        C  0.20963676  0.34561254  0.44113590    -0.32100
C911        C  0.19982110  0.36425512  0.44109734     0.21300
C912        C  0.21930932  0.39423541  0.44081954     0.03500
C913        C  0.24940222  0.40696269  0.44053623    -0.21900
C914        C  0.25916931  0.38840539  0.44056309     0.12700
S915        S  0.25648185  0.33988812  0.44107376    -0.05500
C916        C  0.28964443  0.37296256  0.44078180    -0.09000
C917        C  0.28764727  0.39684812  0.44048300    -0.25600
S918        S  0.20347760  0.41328296  0.44091888    -0.02800
C919        C  0.17007663  0.38061601  0.44126819    -0.16200
C920        C  0.17135498  0.35624010  0.44135816    -0.14200
H921        H  0.19446407  0.32221018  0.44140815     0.21100
H922        H  0.26458487  0.43037689  0.44035147     0.17200
H923        H  0.30611744  0.41929069  0.44039587     0.19700
H924        H  0.15257173  0.33398398  0.44165021     0.13000
C925        C  0.56356157  0.44904637  0.56495480     0.16900
C926        C  0.59334444  0.46778298  0.56254143    -0.32100
C927        C  0.60620249  0.49771208  0.56396799     0.21300
C928        C  0.59008619  0.50847573  0.56758875     0.03500
C929        C  0.56038742  0.48976610  0.57003711    -0.21900
C930        C  0.54757165  0.45988968  0.56863876     0.12700
S931        S  0.54377972  0.41207523  0.56368101    -0.05500
C932        C  0.51370500  0.41130656  0.56814800    -0.09000
C933        C  0.51895676  0.43833309  0.57050564    -0.25600
S934        S  0.60954324  0.54535649  0.56881984    -0.02800
C935        C  0.63983616  0.54637209  0.56451907    -0.16200
C936        C  0.63490036  0.51942945  0.56221381    -0.14200
H937        H  0.60592693  0.45940930  0.55968820     0.21100
H938        H  0.54781111  0.49813829  0.57290346     0.17200
H939        H  0.50264860  0.44202923  0.57333927     0.19700
H940        H  0.65143032  0.51592631  0.55951132     0.13000
C941        C  0.44706284  0.18177253  0.57324176     0.16900
C942        C  0.45862136  0.21161609  0.57255571    -0.32100
C943        C  0.43906345  0.22026333  0.57285860     0.21300
C944        C  0.40926576  0.20014709  0.57379006     0.03500
C945        C  0.39768276  0.17024764  0.57448247    -0.21900
C946        C  0.41727435  0.16157952  0.57417606     0.12700
S947        S  0.46717449  0.16692202  0.57290721    -0.05500
C948        C  0.43514907  0.13305601  0.57402234    -0.09000
C949        C  0.41030039  0.13355834  0.57461212    -0.25600
S950        S  0.38928227  0.21523341  0.57387787    -0.02800
C951        C  0.42145409  0.24898046  0.57266022    -0.16200
C952        C  0.44616408  0.24825369  0.57223648    -0.14200
H953        H  0.48187081  0.22742693  0.57178341     0.21100
H954        H  0.37442096  0.15442942  0.57518130     0.17200
H955        H  0.38828402  0.11442252  0.57522928     0.19700
H956        H  0.46821561  0.26724712  0.57142342     0.13000
C957        C  0.38418184  0.35250626  0.51872213     0.16900
C958        C  0.37670944  0.36445908  0.50975199    -0.32100
C959        C  0.37827554  0.35680670  0.49842735     0.21300
C960        C  0.38672524  0.33796457  0.49614373     0.03500
C961        C  0.39433234  0.32616626  0.50509693    -0.21900
C962        C  0.39295706  0.33394720  0.51639658     0.12700
S963        S  0.38429270  0.35939990  0.53304420    -0.05500
C964        C  0.39662645  0.33731105  0.53590995    -0.09000
C965        C  0.40020500  0.32526292  0.52620160    -0.25600
S966        S  0.38751645  0.33157539  0.48184944    -0.02800
C967        C  0.37658058  0.35471316  0.47884410    -0.16200
C968        C  0.37249616  0.36655602  0.48852507    -0.14200
H969        H  0.37018463  0.37924847  0.51151567     0.21100
H970        H  0.40127105  0.31171645  0.50332399     0.17200
H971        H  0.40816568  0.31123539  0.52629707     0.19700
H972        H  0.36605835  0.38183208  0.48832097     0.13000
C973        C  0.01053949  0.34542371  0.39519085     0.16900
C974        C  0.98740077  0.33513260  0.38724867    -0.32100
C975        C  0.99338803  0.34968557  0.37661003     0.21300
C976        C  0.02117585  0.37331107  0.37405293     0.03500
C977        C  0.04412988  0.38356420  0.38195350    -0.21900
C978        C  0.03817934  0.36907514  0.39251043     0.12700
S979        S  0.00807546  0.33160032  0.40871209    -0.05500
C980        C  0.04463398  0.35810986  0.41068526    -0.09000
C981        C  0.05773743  0.37627883  0.40128277    -0.25600
S982        S  0.02472650  0.38728299  0.36061864    -0.02800
C983        C  0.98836939  0.36096623  0.35822937    -0.16200
C984        C  0.97426091  0.34267226  0.36755713    -0.14200
H985        H  0.96575785  0.31661744  0.38925818     0.21100
H986        H  0.06582074  0.40199128  0.37992085     0.17200
H987        H  0.08031351  0.39450612  0.40100298     0.19700
H988        H  0.95170609  0.32439511  0.36750545     0.13000
C989        C  0.69160610  0.03667487  0.37364138     0.16900
C990        C  0.68064223  0.01348141  0.38141518    -0.32100
C991        C  0.69282537  0.01946828  0.39247664     0.21300
C992        C  0.71492287  0.04735265  0.39575026     0.03500
C993        C  0.72573784  0.07075063  0.38797085    -0.21900
C994        C  0.71351561  0.06473980  0.37683451     0.12700
S995        S  0.68065513  0.03323478  0.35967073    -0.05500
C996        C  0.70577443  0.07005483  0.35797456    -0.09000
C997        C  0.72149645  0.08417796  0.36787177    -0.25600
S998        S  0.72645413  0.04970147  0.40969624    -0.02800
C999        C  0.70106806  0.01276865  0.41105815    -0.16200
C1000       C  0.68486096  0.99965370  0.40117055    -0.14200
H1001       H  0.66352129  0.99158492  0.37890158     0.21100
H1002       H  0.74301085  0.09259569  0.39045861     0.17200
H1003       H  0.73867145  0.10709550  0.36833313     0.19700
H1004       H  0.66762003  0.97679721  0.40044283     0.13000
C1005       C  0.80819154  0.21098185  0.34418988     0.16900
C1006       C  0.82615186  0.24156082  0.34519085    -0.32100
C1007       C  0.85639746  0.25535646  0.34351593     0.21300
C1008       C  0.86801806  0.23921717  0.34121595     0.03500
C1009       C  0.85029212  0.20891245  0.34047472    -0.21900
C1010       C  0.82027484  0.19532007  0.34184139     0.12700
S1011       S  0.77070616  0.18988339  0.34458627    -0.05500
C1012       C  0.77173577  0.16010575  0.34121012    -0.09000
C1013       C  0.79965745  0.16638424  0.34020527    -0.25600
S1014       S  0.90430767  0.25930301  0.33833724    -0.02800
C1015       C  0.90433198  0.29018513  0.34006733    -0.16200
C1016       C  0.87741712  0.28489897  0.34303740    -0.14200
H1017       H  0.81686351  0.25408525  0.34669518     0.21100
H1018       H  0.85939919  0.19651166  0.33835400     0.17200
H1019       H  0.80461108  0.15070596  0.33782244     0.19700
H1020       H  0.87312946  0.30163423  0.34404474     0.13000
C1021       C  0.40098852  0.94810015  0.63621935     0.16900
C1022       C  0.40919472  0.95399204  0.62459104    -0.32100
C1023       C  0.40621094  0.97477149  0.61883644     0.21300
C1024       C  0.39558623  0.98901870  0.62443340     0.03500
C1025       C  0.38733331  0.98306164  0.63600049    -0.21900
C1026       C  0.39035106  0.96240684  0.64173635     0.12700
S1027       S  0.40324531  0.92409240  0.64488225    -0.05500
C1028       C  0.39000532  0.93369360  0.65609439    -0.09000
C1029       C  0.38401785  0.95426671  0.65305373    -0.25600
S1030       S  0.39427151  0.01398332  0.61613877    -0.02800
C1031       C  0.40795739  0.00515458  0.60489299    -0.16200
C1032       C  0.41325826  0.98387885  0.60758342    -0.14200
H1033       H  0.41768895  0.94301209  0.62024528     0.21100
H1034       H  0.37915316  0.99428347  0.64038638     0.17200
H1035       H  0.37552192  0.96301517  0.65882562     0.19700
H1036       H  0.42227232  0.97589006  0.60168393     0.13000
C1037       C  0.04478713  0.63224199  0.63073430     0.16900
C1038       C  0.04570824  0.62672055  0.64245953    -0.32100
C1039       C  0.07307577  0.64088010  0.64790438     0.21300
C1040       C  0.09853194  0.65960697  0.64194889     0.03500
C1041       C  0.09760988  0.66531267  0.63018908    -0.21900
C1042       C  0.07011785  0.65124946  0.62473427     0.12700
S1043       S  0.01372914  0.61628762  0.62257908    -0.05500
C1044       C  0.03483983  0.63543220  0.61088080    -0.09000
C1045       C  0.06451842  0.65336667  0.61331707    -0.25600
S1046       S  0.12950503  0.67429832  0.65022963    -0.02800
C1047       C  0.10785139  0.65543095  0.66188757    -0.16200
C1048       C  0.07823645  0.63842348  0.65927867    -0.14200
H1049       H  0.02590262  0.61189116  0.64713725     0.21100
H1050       H  0.11743123  0.67996322  0.62549403     0.17200
H1051       H  0.08114889  0.66643454  0.60700853     0.19700
H1052       H  0.06121596  0.62486612  0.66538094     0.13000
C1053       C  0.28808989  0.79850883  0.67433046     0.16900
C1054       C  0.26816721  0.76815339  0.67314468    -0.32100
C1055       C  0.23910208  0.75583388  0.67664783     0.21300
C1056       C  0.23044992  0.77312361  0.68100782     0.03500
C1057       C  0.25003502  0.80323666  0.68196009    -0.21900
C1058       C  0.27888514  0.81536394  0.67861349     0.12700
S1059       S  0.32497319  0.81796525  0.67161612    -0.05500
C1060       C  0.32775600  0.84877713  0.67657988    -0.09000
C1061       C  0.30119301  0.84391043  0.67975580    -0.25600
S1062       S  0.19530721  0.75455059  0.68557850    -0.02800
C1063       C  0.19162843  0.72270453  0.68162436    -0.16200
C1064       C  0.21664142  0.72670254  0.67683760    -0.14200
H1065       H  0.27518155  0.75466867  0.66997602     0.21100
H1066       H  0.24328235  0.81658887  0.68553929     0.17200
H1067       H  0.29842245  0.86035098  0.68319177     0.19700
H1068       H  0.21865170  0.70922489  0.67413022     0.13000
C1069       C  0.36035938  0.36953928  0.63186288     0.16900
C1070       C  0.35655470  0.36141342  0.62024266    -0.32100
C1071       C  0.37366351  0.35204999  0.61587427     0.21300
C1072       C  0.39325152  0.35035930  0.62283727     0.03500
C1073       C  0.39664827  0.35796389  0.63447493    -0.21900
C1074       C  0.38000360  0.36784998  0.63876600     0.12700
S1075       S  0.34374164  0.38394644  0.63858352    -0.05500
C1076       C  0.36391526  0.38829122  0.65079724    -0.09000
C1077       C  0.38196413  0.37831847  0.64959907    -0.25600
S1078       S  0.41353739  0.34062511  0.61581219    -0.02800
C1079       C  0.39575266  0.33904038  0.60328125    -0.16200
C1080       C  0.37481520  0.34531232  0.60462909    -0.14200
H1081       H  0.34169366  0.36329523  0.61475512     0.21100
H1082       H  0.41238962  0.35723954  0.63984978     0.17200
H1083       H  0.39670128  0.37981722  0.65621802     0.19700
H1084       H  0.36212412  0.34622581  0.59767828     0.13000
C1085       C  0.65590563  0.96258864  0.64027487     0.16900
C1086       C  0.66101268  0.98428486  0.63240367    -0.32100
C1087       C  0.67425061  0.98574394  0.62195721     0.21300
C1088       C  0.68264635  0.96692274  0.61953077     0.03500
C1089       C  0.67816185  0.94571280  0.62751244    -0.21900
C1090       C  0.66436407  0.94385623  0.63784699     0.12700
S1091       S  0.63714036  0.95490915  0.65284311    -0.05500
C1092       C  0.64002112  0.92560732  0.65473948    -0.09000
C1093       C  0.65582067  0.92302657  0.64615882    -0.25600
S1094       S  0.69670705  0.97106124  0.60609298    -0.02800
C1095       C  0.69099852  0.99829881  0.60368761    -0.16200
C1096       C  0.67914332  0.00390191  0.61291262    -0.14200
H1097       H  0.65393250  0.99863117  0.63414370     0.21100
H1098       H  0.68411444  0.93056056  0.62556581     0.17200
H1099       H  0.65989288  0.90607171  0.64564253     0.19700
H1100       H  0.67364118  0.01989937  0.61288701     0.13000
C1101       C  0.52110481  0.90446908  0.67740557     0.16900
C1102       C  0.50709175  0.91738457  0.68145963    -0.32100
C1103       C  0.47790087  0.90486754  0.67823871     0.21300
C1104       C  0.46322417  0.88073636  0.67117821     0.03500
C1105       C  0.47728094  0.86769784  0.66712512    -0.21900
C1106       C  0.50650710  0.88005366  0.67047058     0.12700
S1107       S  0.55629913  0.91627280  0.68054480    -0.05500
C1108       C  0.55150534  0.88780829  0.67256997    -0.09000
C1109       C  0.52383242  0.87028240  0.66770022    -0.25600
S1110       S  0.42777669  0.86923092  0.66828655    -0.02800
C1111       C  0.43268468  0.89689194  0.67689873    -0.16200
C1112       C  0.46066756  0.91418350  0.68150886    -0.14200
H1113       H  0.51840793  0.93628685  0.68697630     0.21100
H1114       H  0.46589875  0.84866380  0.66168630     0.17200
H1115       H  0.51670840  0.85136550  0.66245456     0.19700
H1116       H  0.46834789  0.93293881  0.68692514     0.13000
C1117       C  0.66849748  0.65167230  0.63166903     0.16900
C1118       C  0.68202956  0.64180587  0.62489710    -0.32100
C1119       C  0.69041089  0.65334983  0.61381360     0.21300
C1120       C  0.68589008  0.67410368  0.60962126     0.03500
C1121       C  0.67264289  0.68432965  0.61649571    -0.21900
C1122       C  0.66386048  0.67242082  0.62759306     0.12700
S1123       S  0.65545727  0.63898587  0.64507706    -0.05500
C1124       C  0.64314135  0.66162398  0.64534370    -0.09000
C1125       C  0.64938513  0.67835398  0.63541637    -0.25600
S1126       S  0.69607321  0.68374780  0.59559314    -0.02800
C1127       C  0.70625948  0.65935425  0.59546314    -0.16200
C1128       C  0.70222979  0.64502309  0.60579770    -0.14200
H1129       H  0.68522983  0.62525737  0.62803504     0.21100
H1130       H  0.66864814  0.70023431  0.61323824     0.17200
H1131       H  0.64338946  0.69365102  0.63379344     0.19700
H1132       H  0.70654479  0.62835857  0.60723554     0.13000
C1133       C  0.58477957  0.78021649  0.66299931     0.16900
C1134       C  0.58321213  0.75754600  0.65695417    -0.32100
C1135       C  0.58683363  0.73792531  0.66324434     0.21300
C1136       C  0.59096290  0.74024419  0.67505111     0.03500
C1137       C  0.59224406  0.76272139  0.68108514    -0.21900
C1138       C  0.58950614  0.78281651  0.67475550     0.12700
S1139       S  0.58318094  0.80756190  0.65692250    -0.05500
C1140       C  0.59051578  0.82366609  0.67029955    -0.09000
C1141       C  0.59250905  0.80734765  0.67899898    -0.25600
S1142       S  0.59639549  0.71526960  0.68103583    -0.02800
C1143       C  0.59393152  0.70196597  0.66745335    -0.16200
C1144       C  0.58843930  0.71595350  0.65883670    -0.14200
H1145       H  0.58033945  0.75587933  0.64771249     0.21100
H1146       H  0.59630233  0.76508713  0.69026138     0.17200
H1147       H  0.59649917  0.81296457  0.68798879     0.19700
H1148       H  0.58674126  0.71101970  0.64977012     0.13000
C1149       C  0.52161094  0.55054155  0.67373224     0.16900
C1150       C  0.50286220  0.52021005  0.67347938    -0.32100
C1151       C  0.47333158  0.50785001  0.67569861     0.21300
C1152       C  0.46288044  0.52477812  0.67844481     0.03500
C1153       C  0.48187877  0.55528949  0.67896040    -0.21900
C1154       C  0.51146163  0.56780405  0.67638762     0.12700
S1155       S  0.55720035  0.56932345  0.66976502    -0.05500
C1156       C  0.55870525  0.60105001  0.67146993    -0.09000
C1157       C  0.53292075  0.59703151  0.67526767    -0.25600
S1158       S  0.42569265  0.50533029  0.67983971    -0.02800
C1159       C  0.42440057  0.47442075  0.67630372    -0.16200
C1160       C  0.45148665  0.47908596  0.67452785    -0.14200
H1161       H  0.51070495  0.50687143  0.67105011     0.21100
H1162       H  0.47372697  0.56871011  0.68073328     0.17200
H1163       H  0.52955805  0.61437053  0.67640790     0.19700
H1164       H  0.45488742  0.46246288  0.67188664     0.13000
C1165       C  0.03572643  0.61991703  0.40054745     0.16900
C1166       C  0.02899197  0.60773917  0.38953809    -0.32100
C1167       C  0.00508928  0.60487260  0.38378292     0.21300
C1168       C  0.98856582  0.61371919  0.38875352     0.03500
C1169       C  0.99543333  0.62613897  0.39976339    -0.21900
C1170       C  0.01937939  0.62897716  0.40554924     0.12700
S1171       S  0.06352793  0.62461020  0.40893694    -0.05500
C1172       C  0.05327682  0.63910737  0.41933937    -0.09000
C1173       C  0.02936993  0.64005572  0.41638405    -0.25600
S1174       S  0.95979999  0.60728779  0.38046898    -0.02800
C1175       C  0.97002500  0.59232906  0.37017258    -0.16200
C1176       C  0.99479878  0.59292639  0.37313383    -0.14200
H1177       H  0.04168829  0.60054483  0.38566629     0.21100
H1178       H  0.98250209  0.63298176  0.40369029     0.17200
H1179       H  0.01973933  0.64818685  0.42187472     0.19700
H1180       H  0.00433993  0.58434100  0.36784359     0.13000
C1181       C  0.92425649  0.46671920  0.33552766     0.16900
C1182       C  0.92797060  0.44801149  0.32883807    -0.32100
C1183       C  0.92909305  0.42610901  0.33455805     0.21300
C1184       C  0.92584905  0.42244671  0.34635258     0.03500
C1185       C  0.92150982  0.44072014  0.35299844    -0.21900
C1186       C  0.92118834  0.46308005  0.34732954     0.12700
S1187       S  0.92590684  0.49684944  0.33049491    -0.05500
C1188       C  0.92330316  0.50511399  0.34448845    -0.09000
C1189       C  0.92025817  0.48472153  0.35247137    -0.25600
S1190       S  0.92992176  0.39600113  0.35174526    -0.02800
C1191       C  0.93672967  0.39005060  0.33799615    -0.16200
C1192       C  0.93509360  0.40747744  0.32971186    -0.14200
H1193       H  0.93118390  0.45121242  0.31965073     0.21100
H1194       H  0.91978145  0.43844021  0.36225569     0.17200
H1195       H  0.91897171  0.48637850  0.36167260     0.19700
H1196       H  0.93895374  0.40729113  0.32063399     0.13000
C1197       C  0.41651141  0.36481367  0.39257167     0.16900
C1198       C  0.43002546  0.37185528  0.38180491    -0.32100
C1199       C  0.43171463  0.35054717  0.37616766     0.21300
C1200       C  0.42036304  0.32334783  0.38101787     0.03500
C1201       C  0.40655488  0.31616169  0.39177816    -0.21900
C1202       C  0.40498556  0.33759399  0.39746853     0.12700
S1203       S  0.41328885  0.38814635  0.40083811    -0.05500
C1204       C  0.39616350  0.36114019  0.41110348    -0.09000
C1205       C  0.39319903  0.33530390  0.40814338    -0.25600
S1206       S  0.42598487  0.30116285  0.37299117    -0.02800
C1207       C  0.44413968  0.32893104  0.36298361    -0.16200
C1208       C  0.44498924  0.35374765  0.36582793    -0.14200
H1209       H  0.43923429  0.39322233  0.37805778     0.21100
H1210       H  0.39786737  0.29498873  0.39562363     0.17200
H1211       H  0.38335097  0.31610279  0.41354666     0.19700
H1212       H  0.45573416  0.37353227  0.36074978     0.13000
C1213       C  0.71028022  0.63925739  0.37454476     0.16900
C1214       C  0.70498081  0.65731864  0.38086273    -0.32100
C1215       C  0.70745331  0.65709424  0.39286971     0.21300
C1216       C  0.71562947  0.64024557  0.39832697     0.03500
C1217       C  0.72106416  0.62229622  0.39199854    -0.21900
C1218       C  0.71782753  0.62194305  0.38001019     0.12700
S1219       S  0.70658872  0.63501250  0.35999009    -0.05500
C1220       C  0.71470448  0.60906160  0.36121316    -0.09000
C1221       C  0.72031266  0.60457364  0.37243754    -0.25600
S1222       S  0.71599675  0.64188117  0.41297530    -0.02800
C1223       C  0.70409481  0.66475990  0.41175982    -0.16200
C1224       C  0.70081282  0.67124276  0.40054119    -0.14200
H1225       H  0.69831073  0.67026777  0.37662766     0.21100
H1226       H  0.72666328  0.60851607  0.39626012     0.17200
H1227       H  0.72526831  0.58884614  0.37493184     0.19700
H1228       H  0.69274419  0.68452976  0.39813389     0.13000
C1229       C  0.79583978  0.55316512  0.33802793     0.16900
C1230       C  0.81040405  0.53880267  0.33794326    -0.32100
C1231       C  0.84084977  0.55571701  0.33965068     0.21300
C1232       C  0.85596224  0.58560158  0.34109624     0.03500
C1233       C  0.84154116  0.59988215  0.34101977    -0.21900
C1234       C  0.81123768  0.58298476  0.33963578     0.12700
S1235       S  0.75881164  0.53667871  0.33711779    -0.05500
C1236       C  0.76436733  0.57025740  0.33926568    -0.09000
C1237       C  0.79339763  0.59284513  0.34036273    -0.25600
S1238       S  0.89210929  0.60225283  0.34400819    -0.02800
C1239       C  0.88713543  0.56867426  0.34351713    -0.16200
C1240       C  0.85884768  0.54581979  0.34091211    -0.14200
H1241       H  0.79843096  0.51541056  0.33703358     0.21100
H1242       H  0.85333968  0.62309292  0.34248208     0.17200
H1243       H  0.80102060  0.61526812  0.34198582     0.19700
H1244       H  0.85155560  0.52316482  0.34068716     0.13000
C1245       C  0.62735789  0.46133141  0.34896660     0.16900
C1246       C  0.60504458  0.43539925  0.35400658    -0.32100
C1247       C  0.58267898  0.41460337  0.34684623     0.21300
C1248       C  0.58289769  0.41880849  0.33508241     0.03500
C1249       C  0.60585389  0.44454904  0.32995278    -0.21900
C1250       C  0.62786314  0.46592981  0.33721136     0.12700
S1251       S  0.65370973  0.49059350  0.35654595    -0.05500
C1252       C  0.66558048  0.50979909  0.34382133    -0.09000
C1253       C  0.65020352  0.49373666  0.33416342    -0.25600
S1254       S  0.55185969  0.39198849  0.32818118    -0.02800
C1255       C  0.53823344  0.37572330  0.34136933    -0.16200
C1256       C  0.55743449  0.38991796  0.35045588    -0.14200
H1257       H  0.60421490  0.43231140  0.36323056     0.21100
H1258       H  0.60568773  0.44842615  0.32082707     0.17200
H1259       H  0.65386547  0.50250230  0.32552979     0.19700
H1260       H  0.55248920  0.38346416  0.35938202     0.13000
C1261       C  0.10214942  0.38906609  0.63401731     0.16900
C1262       C  0.09678176  0.37677855  0.62307804    -0.32100
C1263       C  0.07097064  0.36940839  0.61749591     0.21300
C1264       C  0.05108952  0.37366616  0.62264750     0.03500
C1265       C  0.05634234  0.38572396  0.63368959    -0.21900
C1266       C  0.08247584  0.39350098  0.63921869     0.12700
S1267       S  0.13305938  0.40098740  0.64175857    -0.05500
C1268       C  0.11988673  0.41267419  0.65221424    -0.09000
C1269       C  0.09241238  0.40682893  0.64971675    -0.25600
S1270       S  0.02179268  0.36458676  0.61414381    -0.02800
C1271       C  0.03681306  0.35540598  0.60351443    -0.16200
C1272       C  0.06286331  0.35884358  0.60654809    -0.14200
H1273       H  0.11244557  0.37379609  0.61896735     0.21100
H1274       H  0.04111467  0.38954345  0.63766190     0.17200
H1275       H  0.08079025  0.41283586  0.65515344     0.19700
H1276       H  0.07571650  0.35483184  0.60090317     0.13000
C1277       C  0.25866398  0.46290933  0.66901581     0.16900
C1278       C  0.28199473  0.46403221  0.66380328    -0.32100
C1279       C  0.29578201  0.45303578  0.66997549     0.21300
C1280       C  0.28754120  0.44241651  0.68107240     0.03500
C1281       C  0.26417854  0.44144729  0.68635110    -0.21900
C1282       C  0.24959760  0.45151945  0.67997839     0.12700
S1283       S  0.23694734  0.47140895  0.66216726    -0.05500
C1284       C  0.21441587  0.45842354  0.67394762    -0.09000
C1285       C  0.22418891  0.44913696  0.68292604    -0.25600
S1286       S  0.30665193  0.42917940  0.68687918    -0.02800
C1287       C  0.32502477  0.43711901  0.67405740    -0.16200
C1288       C  0.31704182  0.44985182  0.66588508    -0.14200
H1289       H  0.28820611  0.47183856  0.65506630     0.21100
H1290       H  0.25688898  0.43207760  0.69483161     0.17200
H1291       H  0.21198730  0.43868627  0.69067503     0.19700
H1292       H  0.32586367  0.45582142  0.65729126     0.13000
C1293       C  0.16601478  0.54410856  0.68461131     0.16900
C1294       C  0.16521307  0.56475866  0.69121875    -0.32100
C1295       C  0.16294883  0.58581262  0.68537108     0.21300
C1296       C  0.16239004  0.58685972  0.67347983     0.03500
C1297       C  0.16363577  0.56649946  0.66687866    -0.21900
C1298       C  0.16502261  0.54494286  0.67272485     0.12700
S1299       S  0.16590159  0.51509387  0.69001472    -0.05500
C1300       C  0.16358345  0.50344197  0.67611459    -0.09000
C1301       C  0.16380727  0.52185868  0.66782348    -0.25600
S1302       S  0.15772373  0.61290989  0.66805097    -0.02800
C1303       C  0.15559616  0.62201339  0.68194685    -0.16200
C1304       C  0.15924542  0.60600518  0.69026578    -0.14200
H1305       H  0.16514951  0.56374107  0.70051515     0.21100
H1306       H  0.16236678  0.56671783  0.65758994     0.17200
H1307       H  0.16220783  0.51812396  0.65865286     0.19700
H1308       H  0.15819625  0.60824031  0.69944279     0.13000
C1309       C  0.42942238  0.03724483  0.37629297     0.16900
C1310       C  0.41265129  0.01338660  0.38364606    -0.32100
C1311       C  0.41505567  0.01874988  0.39550822     0.21300
C1312       C  0.43263514  0.04672458  0.39982687     0.03500
C1313       C  0.44916575  0.07058134  0.39246176    -0.21900
C1314       C  0.44751496  0.06509132  0.38064178     0.12700
S1315       S  0.43124127  0.03512076  0.36173703    -0.05500
C1316       C  0.45729445  0.07215189  0.36147440    -0.09000
C1317       C  0.46364196  0.08509233  0.37222695    -0.25600
S1318       S  0.43373484  0.04856559  0.41448291    -0.02800
C1319       C  0.41093157  0.01117466  0.41484231    -0.16200
C1320       C  0.40249873  0.99823821  0.40409213    -0.14200
H1321       H  0.39912513  0.99149735  0.38029766     0.21100
H1322       H  0.46352150  0.09234594  0.39583366     0.17200
H1323       H  0.47968071  0.10795431  0.37380713     0.19700
H1324       H  0.38880131  0.97500438  0.40263728     0.13000
C1325       C  0.63427732  0.12193267  0.34393936     0.16900
C1326       C  0.61407822  0.12494902  0.34984211    -0.32100
C1327       C  0.59218665  0.12453717  0.34336765     0.21300
C1328       C  0.59078201  0.12192511  0.33151572     0.03500
C1329       C  0.61124244  0.11930484  0.32559542    -0.21900
C1330       C  0.63274127  0.11903332  0.33210263     0.12700
S1331       S  0.66123263  0.11985357  0.35027501    -0.05500
C1332       C  0.67038685  0.11450912  0.33685524    -0.09000
C1333       C  0.65337759  0.11486990  0.32799483    -0.25600
S1334       S  0.56123746  0.11973884  0.32536998    -0.02800
C1335       C  0.55012476  0.12146092  0.33894669    -0.16200
C1336       C  0.56915666  0.12455861  0.34765124    -0.14200
H1337       H  0.61477329  0.12652377  0.35911987     0.21100
H1338       H  0.60984650  0.11655545  0.31636230     0.17200
H1339       H  0.65558989  0.11186251  0.31899086     0.19700
H1340       H  0.56562308  0.12534074  0.35672995     0.13000
C1341       C  0.49958298  0.20712705  0.33373016     0.16900
C1342       C  0.51041246  0.23695523  0.33280457    -0.32100
C1343       C  0.49102969  0.24539633  0.33505927     0.21300
C1344       C  0.46220457  0.22490088  0.33788210     0.03500
C1345       C  0.45135357  0.19534788  0.33852260    -0.21900
C1346       C  0.47067551  0.18707436  0.33652411     0.12700
S1347       S  0.51969972  0.19212507  0.33268088    -0.05500
C1348       C  0.48882898  0.15891388  0.33636369    -0.09000
C1349       C  0.46440118  0.15964361  0.33790323    -0.25600
S1350       S  0.44253444  0.23887863  0.34134099    -0.02800
C1351       C  0.47331423  0.27306246  0.33909308    -0.16200
C1352       C  0.49748003  0.27333503  0.33556890    -0.14200
H1353       H  0.53311788  0.25292752  0.33089489     0.21100
H1354       H  0.42900629  0.17953042  0.34100066     0.17200
H1355       H  0.44327538  0.14115013  0.34050362     0.19700
H1356       H  0.51886353  0.29285246  0.33409949     0.13000
C1357       C  0.73225101  0.62189621  0.28046085     0.16900
C1358       C  0.73446483  0.60543450  0.28919567    -0.32100
C1359       C  0.71976751  0.60145798  0.29954362     0.21300
C1360       C  0.70322445  0.61299345  0.30101124     0.03500
C1361       C  0.70060613  0.62900010  0.29221991    -0.21900
C1362       C  0.71573120  0.63344223  0.28197145     0.12700
S1363       S  0.75051248  0.63141330  0.26771486    -0.05500
C1364       C  0.73609350  0.65150647  0.26441708    -0.09000
C1365       C  0.71774477  0.65034147  0.27278798    -0.25600
S1366       S  0.68919396  0.60809547  0.31445351    -0.02800
C1367       C  0.70606351  0.59060755  0.31829961    -0.16200
C1368       C  0.72117538  0.58823355  0.30940222    -0.14200
H1369       H  0.74793947  0.59701719  0.28812693     0.21100
H1370       H  0.68823128  0.63856427  0.29348974     0.17200
H1371       H  0.70741196  0.66221499  0.27239913     0.19700
H1372       H  0.73406735  0.57905620  0.31029901     0.13000
C1373       C  0.73698018  0.68523059  0.17961303     0.16900
C1374       C  0.73564096  0.68944133  0.16775485    -0.32100
C1375       C  0.72909334  0.66658564  0.16037297     0.21300
C1376       C  0.72386631  0.64061101  0.16465387     0.03500
C1377       C  0.72479487  0.63625068  0.17651390    -0.21900
C1378       C  0.73157834  0.65918104  0.18388225     0.12700
S1379       S  0.74645031  0.71093787  0.18988948    -0.05500
C1380       C  0.74308875  0.68638944  0.20008182    -0.09000
C1381       C  0.73485225  0.65962940  0.19563468    -0.25600
S1382       S  0.71791647  0.61616664  0.15432242    -0.02800
C1383       C  0.72262530  0.64114810  0.14406292    -0.16200
C1384       C  0.72819951  0.66696282  0.14854225    -0.14200
H1385       H  0.74020171  0.70990749  0.16441208     0.21100
H1386       H  0.72106302  0.61608958  0.17983367     0.17200
H1387       H  0.73235707  0.64181889  0.20067403     0.19700
H1388       H  0.73233447  0.68534102  0.14343022     0.13000
C1389       C  0.44505264  0.32816828  0.29894810     0.16900
C1390       C  0.44259136  0.32419940  0.28697795    -0.32100
C1391       C  0.42207976  0.32734896  0.28109286     0.21300
C1392       C  0.40506554  0.33450460  0.28685949     0.03500
C1393       C  0.40779728  0.33881262  0.29879491    -0.21900
C1394       C  0.42798957  0.33525159  0.30469133     0.12700
S1395       S  0.46747859  0.32389383  0.30775448    -0.05500
C1396       C  0.45364911  0.33150894  0.31938816    -0.09000
C1397       C  0.43281548  0.33725414  0.31635695    -0.25600
S1398       S  0.37997297  0.33519958  0.27835096    -0.02800
C1399       C  0.39213771  0.32531646  0.26688530    -0.16200
C1400       C  0.41495380  0.32232821  0.26960212    -0.14200
H1401       H  0.45554430  0.31816409  0.28249245     0.21100
H1402       H  0.39416827  0.34390523  0.30333821     0.17200
H1403       H  0.42143688  0.34239313  0.32231859     0.19700
H1404       H  0.42468236  0.31523946  0.26363446     0.13000
C1405       C  0.60031264  0.49283166  0.10055491     0.16900
C1406       C  0.58089312  0.46276028  0.09922091    -0.32100
C1407       C  0.55123510  0.45080387  0.10098118     0.21300
C1408       C  0.54115045  0.46799345  0.10383493     0.03500
C1409       C  0.56064118  0.49824758  0.10511613    -0.21900
C1410       C  0.59048994  0.51022585  0.10346169     0.12700
S1411       S  0.63717064  0.51098266  0.09923824    -0.05500
C1412       C  0.63974113  0.54253080  0.10270882    -0.09000
C1413       C  0.61311753  0.53892887  0.10469679    -0.25600
S1414       S  0.50426925  0.44879473  0.10596209    -0.02800
C1415       C  0.50267008  0.41736970  0.10309396    -0.16200
C1416       C  0.52933647  0.42186783  0.10052138    -0.14200
H1417       H  0.58864723  0.44916939  0.09709628     0.21100
H1418       H  0.55295487  0.51174862  0.10748625     0.17200
H1419       H  0.61052357  0.55620497  0.10713900     0.19700
H1420       H  0.53265790  0.40475214  0.09868124     0.13000
C1421       C  0.39381295  0.33729530  0.18212690     0.16900
C1422       C  0.41246319  0.34717891  0.17262221    -0.32100
C1423       C  0.39970041  0.33870312  0.16162803     0.21300
C1424       C  0.36970129  0.32167624  0.16012006     0.03500
C1425       C  0.35105960  0.31198673  0.16961589    -0.21900
C1426       C  0.36382498  0.31993149  0.18061876     0.12700
S1427       S  0.40492339  0.34335271  0.19621783    -0.05500
C1428       C  0.36879183  0.32174940  0.20012576    -0.09000
C1429       C  0.34939836  0.31099671  0.19089837    -0.25600
S1430       S  0.35858511  0.31276111  0.14611119    -0.02800
C1431       C  0.39474468  0.33169932  0.14224473    -0.16200
C1432       C  0.41415492  0.34453166  0.15140827    -0.14200
H1433       H  0.43591153  0.36019429  0.17376209     0.21100
H1434       H  0.32763033  0.29813890  0.16849568     0.17200
H1435       H  0.32595088  0.29654868  0.19166660     0.19700
H1436       H  0.43765362  0.35678386  0.15066844     0.13000
C1437       C  0.00806646  0.34058025  0.27771048     0.16900
C1438       C  0.98748876  0.34129941  0.28440301    -0.32100
C1439       C  0.99482391  0.35005388  0.29589463     0.21300
C1440       C  0.02181243  0.35864984  0.30041080     0.03500
C1441       C  0.04275275  0.35879875  0.29361834    -0.21900
C1442       C  0.03504999  0.34907864  0.28223442     0.12700
S1443       S  0.00169996  0.32669577  0.26414946    -0.05500
C1444       C  0.03546813  0.33171336  0.26463427    -0.09000
C1445       C  0.05102126  0.34433244  0.27471655    -0.25600
S1446       S  0.02541637  0.36576717  0.31478993    -0.02800
C1447       C  0.98980852  0.35632152  0.31486525    -0.16200
C1448       C  0.97659168  0.34910501  0.30408002    -0.14200
H1449       H  0.96609173  0.33381714  0.28098652     0.21100
H1450       H  0.06351043  0.36467662  0.29723589     0.17200
H1451       H  0.07210911  0.34818556  0.27671494     0.19700
H1452       H  0.95419223  0.34196512  0.30245918     0.13000
C1453       C  0.17263061  0.27814484  0.24430376     0.16900
C1454       C  0.18864836  0.26545341  0.24529511    -0.32100
C1455       C  0.21762982  0.28170399  0.24150244     0.21300
C1456       C  0.23013131  0.30944075  0.23697621     0.03500
C1457       C  0.21410140  0.32212104  0.23596982    -0.21900
C1458       C  0.18508786  0.30582614  0.23972720     0.12700
S1459       S  0.13691020  0.26155340  0.24803041    -0.05500
C1460       C  0.13857133  0.29207717  0.24328431    -0.09000
C1461       C  0.16568006  0.31401165  0.23916375    -0.25600
S1462       S  0.26563239  0.32571796  0.23297661    -0.02800
C1463       C  0.26372973  0.29486561  0.23743351    -0.16200
C1464       C  0.23675698  0.27313849  0.24173114    -0.14200
H1465       H  0.17886895  0.24376046  0.24879809     0.21100
H1466       H  0.22378924  0.34369982  0.23236107     0.17200
H1467       H  0.17064717  0.33443642  0.23559405     0.19700
H1468       H  0.23151852  0.25233393  0.24495910     0.13000
C1469       C  0.05477845  0.34067967  0.18669017     0.16900
C1470       C  0.04679136  0.35176907  0.17760600    -0.32100
C1471       C  0.04770839  0.34305244  0.16643181     0.21300
C1472       C  0.05700752  0.32480817  0.16433955     0.03500
C1473       C  0.06521583  0.31389759  0.17341768    -0.21900
C1474       C  0.06347497  0.32193434  0.18461816     0.12700
S1475       S  0.05275386  0.34663979  0.20091651    -0.05500
C1476       C  0.06290957  0.32296779  0.20411245    -0.09000
C1477       C  0.06819989  0.31172107  0.19459124    -0.25600
S1478       S  0.05525325  0.31572816  0.15022473    -0.02800
C1479       C  0.04110789  0.33609398  0.14715447    -0.16200
C1480       C  0.03850427  0.34955615  0.15659880    -0.14200
H1481       H  0.03917894  0.36573577  0.17920984     0.21100
H1482       H  0.07166692  0.29896521  0.17184942     0.17200
H1483       H  0.07414747  0.29606801  0.19494804     0.19700
H1484       H  0.02937589  0.36255952  0.15634157     0.13000
C1485       C  0.89868236  0.11247805  0.23007581     0.16900
C1486       C  0.92285910  0.13781639  0.22538208    -0.32100
C1487       C  0.94372012  0.15869892  0.23302648     0.21300
C1488       C  0.94089699  0.15437261  0.24481973     0.03500
C1489       C  0.91689906  0.12886366  0.24951029    -0.21900
C1490       C  0.89582967  0.10815200  0.24186914     0.12700
S1491       S  0.87002643  0.08550206  0.22228922    -0.05500
C1492       C  0.85390269  0.06826177  0.23505076    -0.09000
C1493       C  0.87024998  0.08268412  0.24477592    -0.25600
S1494       S  0.96796735  0.18282567  0.25264172    -0.02800
C1495       C  0.98308960  0.20089717  0.23989776    -0.16200
C1496       C  0.96794132  0.18534164  0.23014711    -0.14200
H1497       H  0.92494197  0.14142668  0.21618509     0.21100
H1498       H  0.91441455  0.12560979  0.25871846     0.17200
H1499       H  0.86334316  0.07541265  0.25351540     0.19700
H1500       H  0.97398356  0.19335193  0.22142706     0.13000
C1501       C  0.72306761  0.01744303  0.28642145     0.16900
C1502       C  0.71857292  0.01846115  0.29822832    -0.32100
C1503       C  0.71949671  0.04280929  0.30234722     0.21300
C1504       C  0.72446164  0.06497670  0.29501895     0.03500
C1505       C  0.72881472  0.06391117  0.28323570    -0.21900
C1506       C  0.72809615  0.03973596  0.27913457     0.12700
S1507       S  0.72435684  0.99067017  0.27977404    -0.05500
C1508       C  0.73203703  0.00988393  0.26706333    -0.09000
C1509       C  0.73312228  0.03547275  0.26804506    -0.25600
S1510       S  0.72535505  0.09283919  0.30165635    -0.02800
C1511       C  0.71904261  0.07472112  0.31458639    -0.16200
C1512       C  0.71634784  0.04819148  0.31356625    -0.14200
H1513       H  0.71496883  0.00126120  0.30397796     0.21100
H1514       H  0.73302408  0.08141140  0.27753070     0.17200
H1515       H  0.73838381  0.05073659  0.26108498     0.19700
H1516       H  0.71263793  0.03353255  0.32054863     0.13000
C1517       C  0.78398958  0.88145603  0.23937331     0.16900
C1518       C  0.79685169  0.86573875  0.23831644    -0.32100
C1519       C  0.77893356  0.83545898  0.23967761     0.21300
C1520       C  0.74946605  0.82136302  0.24200065     0.03500
C1521       C  0.73658946  0.83713308  0.24311017    -0.21900
C1522       C  0.75453842  0.86748957  0.24171798     0.12700
S1523       S  0.80199010  0.91821392  0.23771010    -0.05500
C1524       C  0.76954526  0.91493700  0.24014136    -0.09000
C1525       C  0.74608987  0.88664621  0.24218962    -0.25600
S1526       S  0.73142582  0.78434883  0.24304199    -0.02800
C1527       C  0.76397025  0.78797568  0.24036063    -0.16200
C1528       C  0.78738682  0.81646056  0.23876563    -0.14200
H1529       H  0.81980875  0.87663155  0.23640974     0.21100
H1530       H  0.71355405  0.82619993  0.24485996     0.17200
H1531       H  0.72401117  0.88039338  0.24374791     0.19700
H1532       H  0.80937243  0.82290346  0.23684561     0.13000
C1533       C  0.82120349  0.17219114  0.11626753     0.16900
C1534       C  0.84051982  0.20237287  0.11725189    -0.32100
C1535       C  0.87040926  0.21377640  0.11734811     0.21300
C1536       C  0.88068372  0.19596391  0.11653006     0.03500
C1537       C  0.86135457  0.16574661  0.11555775    -0.21900
C1538       C  0.83143542  0.15434430  0.11543988     0.12700
S1539       S  0.78415782  0.15419967  0.11594696    -0.05500
C1540       C  0.78239956  0.12226205  0.11475041    -0.09000
C1541       C  0.80921659  0.12560150  0.11454760    -0.25600
S1542       S  0.91776869  0.21417414  0.11648055    -0.02800
C1543       C  0.91937358  0.24610066  0.11745455    -0.16200
C1544       C  0.89253079  0.24258901  0.11792236    -0.14200
H1545       H  0.83260231  0.21637287  0.11784203     0.21100
H1546       H  0.86927754  0.15177154  0.11485236     0.17200
H1547       H  0.81227320  0.10795374  0.11381718     0.19700
H1548       H  0.88936791  0.26021255  0.11835313     0.13000
C1549       C  0.70009870  0.00862045  0.16859646     0.16900
C1550       C  0.70223469  0.01282334  0.18052568    -0.32100
C1551       C  0.70940777  0.99650799  0.18729607     0.21300
C1552       C  0.71370223  0.97640628  0.18242350     0.03500
C1553       C  0.71109609  0.97184048  0.17046673    -0.21900
C1554       C  0.70448091  0.98864564  0.16364933     0.12700
S1555       S  0.69396676  0.02811798  0.15895961    -0.05500
C1556       C  0.69755888  0.00952445  0.14803131    -0.09000
C1557       C  0.70291080  0.98894639  0.15180529    -0.25600
S1558       S  0.72436531  0.96042502  0.19207491    -0.02800
C1559       C  0.72353946  0.98143942  0.20274546    -0.16200
C1560       C  0.71478265  0.99932404  0.19893580    -0.14200
H1561       H  0.69942548  0.02889606  0.18433103     0.21100
H1562       H  0.71505671  0.95660906  0.16661726     0.17200
H1563       H  0.70643286  0.97567907  0.14620323     0.19700
H1564       H  0.71383656  0.01468123  0.20428911     0.13000
C1565       C  0.86736881  0.59183753  0.11694492     0.16900
C1566       C  0.83805157  0.58121042  0.11466616    -0.32100
C1567       C  0.83036188  0.60149349  0.11388674     0.21300
C1568       C  0.85091822  0.63101830  0.11533577     0.03500
C1569       C  0.88013988  0.64160178  0.11768462    -0.21900
C1570       C  0.88781273  0.62135529  0.11845493     0.12700
S1571       S  0.88152342  0.57108243  0.11765687    -0.05500
C1572       C  0.91531411  0.60256365  0.11998276    -0.09000
C1573       C  0.91526892  0.62759080  0.12029564    -0.25600
S1574       S  0.83733029  0.65212142  0.11404043    -0.02800
C1575       C  0.80349954  0.62085332  0.11158317    -0.16200
C1576       C  0.80305452  0.59551880  0.11171564    -0.14200
H1577       H  0.82200349  0.55819168  0.11343859     0.21100
H1578       H  0.89625702  0.66465975  0.11877521     0.17200
H1579       H  0.93453076  0.64937797  0.12136346     0.19700
H1580       H  0.78374517  0.57388300  0.11040890     0.13000
C1581       C  0.01925033  0.50135348  0.11013918     0.16900
C1582       C  0.03239965  0.48580209  0.10917959    -0.32100
C1583       C  0.01415573  0.45526879  0.10935683     0.21300
C1584       C  0.98414990  0.44096984  0.11021881     0.03500
C1585       C  0.97102253  0.45647684  0.11103145    -0.21900
C1586       C  0.98925784  0.48690792  0.11109415     0.12700
S1587       S  0.03752838  0.53840566  0.11079007    -0.05500
C1588       C  0.00443502  0.53429956  0.11255320    -0.09000
C1589       C  0.98063250  0.50566132  0.11246023    -0.25600
S1590       S  0.96578531  0.40403276  0.11082397    -0.02800
C1591       C  0.99881527  0.40764718  0.11008001    -0.16200
C1592       C  0.02274912  0.43618827  0.10921878    -0.14200
H1593       H  0.05584747  0.49699792  0.10862701     0.21100
H1594       H  0.94763424  0.44527789  0.11189880     0.17200
H1595       H  0.95822293  0.49888273  0.11354464     0.19700
H1596       H  0.04519197  0.44264036  0.10885453     0.13000
C1597       C  0.94225053  0.73702161  0.23186044     0.16900
C1598       C  0.91927933  0.73645795  0.22635320    -0.32100
C1599       C  0.90120347  0.74080401  0.23309846     0.21300
C1600       C  0.90615842  0.74627666  0.24478278     0.03500
C1601       C  0.92965246  0.74755953  0.25026431    -0.21900
C1602       C  0.94732238  0.74241481  0.24354910     0.12700
S1603       S  0.96445722  0.72905112  0.22533986    -0.05500
C1604       C  0.98065298  0.73263520  0.23849745    -0.09000
C1605       C  0.96960275  0.74015183  0.24741068    -0.25600
S1606       S  0.87997588  0.74819369  0.25158296    -0.02800
C1607       C  0.86197138  0.74089767  0.23857417    -0.16200
C1608       C  0.87608719  0.73798913  0.22947805    -0.14200
H1609       H  0.91485942  0.73148326  0.21728932     0.21100
H1610       H  0.93318124  0.75106186  0.25943823     0.17200
H1611       H  0.97666871  0.74264222  0.25629154     0.19700
H1612       H  0.86754803  0.73239370  0.22078852     0.13000
C1613       C  0.98417404  0.61877343  0.28774920     0.16900
C1614       C  0.96351021  0.59845359  0.29559465    -0.32100
C1615       C  0.97183348  0.60131324  0.30723177     0.21300
C1616       C  0.99952753  0.62325064  0.31084023     0.03500
C1617       C  0.02025755  0.64326404  0.30300240    -0.21900
C1618       C  0.01191904  0.64055069  0.29141583     0.12700
S1619       S  0.97785121  0.62064861  0.27343055    -0.05500
C1620       C  0.01294494  0.65116193  0.27242018    -0.09000
C1621       C  0.02857385  0.65894476  0.28265859    -0.25600
S1622       S  0.00510082  0.62387932  0.32529753    -0.02800
C1623       C  0.96964313  0.59411923  0.32667059    -0.16200
C1624       C  0.95461095  0.58447222  0.31625098    -0.14200
H1625       H  0.94170406  0.58160035  0.29279778     0.21100
H1626       H  0.04178920  0.66062641  0.30585663     0.17200
H1627       H  0.05054006  0.67793695  0.28376503     0.19700
H1628       H  0.93212248  0.56654442  0.31523376     0.13000
C1629       C  0.05343084  0.66901409  0.16967202     0.16900
C1630       C  0.06598906  0.68900212  0.17878047    -0.32100
C1631       C  0.05657913  0.67832502  0.18999902     0.21300
C1632       C  0.03622196  0.64899712  0.19204372     0.03500
C1633       C  0.02416012  0.62905959  0.18299787    -0.21900
C1634       C  0.03293347  0.63978321  0.17181322     0.12700
S1635       S  0.05940437  0.67764987  0.15533889    -0.05500
C1636       C  0.03358406  0.64156335  0.15228394    -0.09000
C1637       C  0.02166816  0.62399600  0.16192142    -0.25600
S1638       S  0.02588322  0.64042433  0.20603892    -0.02800
C1639       C  0.04871713  0.67678209  0.20926183    -0.16200
C1640       C  0.06401089  0.69443137  0.19990474    -0.14200
H1641       H  0.08145847  0.71197722  0.17715916     0.21100
H1642       H  0.00769356  0.60629105  0.18457378     0.17200
H1643       H  0.00468154  0.60098440  0.16171024     0.19700
H1644       H  0.07868412  0.71788751  0.20023729     0.13000
C1645       C  0.31731464  0.11641375  0.24057183     0.16900
C1646       C  0.30844035  0.13453868  0.24415744    -0.32100
C1647       C  0.32052091  0.16146229  0.23853817     0.21300
C1648       C  0.34052124  0.16981910  0.22976879     0.03500
C1649       C  0.34930246  0.15175030  0.22618759    -0.21900
C1650       C  0.33724670  0.12494193  0.23177024     0.12700
S1651       S  0.30569186  0.08309850  0.24632760    -0.05500
C1652       C  0.32786095  0.08073489  0.23672793    -0.09000
C1653       C  0.34332625  0.10458978  0.22951408    -0.25600
S1654       S  0.35324889  0.20331464  0.22414773    -0.02800
C1655       C  0.33147499  0.20641289  0.23366949    -0.16200
C1656       C  0.31514255  0.18245682  0.24082059    -0.14200
H1657       H  0.29295204  0.12801677  0.25105073     0.21100
H1658       H  0.36500517  0.15838963  0.21936645     0.17200
H1659       H  0.35846262  0.10704947  0.22302572     0.19700
H1660       H  0.30059957  0.18072204  0.24742777     0.13000
C1661       C  0.43573073  0.06520251  0.27964544     0.16900
C1662       C  0.45607973  0.08575008  0.28756565    -0.32100
C1663       C  0.45616796  0.07602589  0.29877062     0.21300
C1664       C  0.43738049  0.04701683  0.30178150     0.03500
C1665       C  0.41742848  0.02648913  0.29385340    -0.21900
C1666       C  0.41676209  0.03630696  0.28279979     0.12700
S1667       S  0.43002641  0.07291440  0.26600268    -0.05500
C1668       C  0.40139529  0.03697691  0.26467854    -0.09000
C1669       C  0.39711285  0.02002534  0.27426236    -0.25600
S1670       S  0.43915375  0.03962675  0.31585692    -0.02800
C1671       C  0.46500347  0.07619788  0.31799386    -0.16200
C1672       C  0.47231498  0.09291493  0.30803226    -0.14200
H1673       H  0.47035843  0.10848575  0.28523327     0.21100
H1674       H  0.40221598  0.00400910  0.29634547     0.17200
H1675       H  0.37973386  0.99725509  0.27512748     0.19700
H1676       H  0.48734637  0.11630875  0.30765472     0.13000
C1677       C  0.18099655  0.82750643  0.24610191     0.16900
C1678       C  0.21116275  0.84645439  0.24445289    -0.32100
C1679       C  0.22302012  0.87644547  0.24416291     0.21300
C1680       C  0.20565387  0.88708205  0.24558029     0.03500
C1681       C  0.17556340  0.86817130  0.24729427    -0.21900
C1682       C  0.16368501  0.83822220  0.24745427     0.12700
S1683       S  0.16208447  0.79037358  0.24601316    -0.05500
C1684       C  0.13049736  0.78932793  0.24761061    -0.09000
C1685       C  0.13473111  0.81643550  0.24838061    -0.25600
S1686       S  0.22399776  0.92405956  0.24474218    -0.02800
C1687       C  0.25548226  0.92534220  0.24241446    -0.16200
C1688       C  0.25169002  0.89833535  0.24233537    -0.14200
H1689       H  0.22470027  0.83816912  0.24323316     0.21100
H1690       H  0.16191667  0.87642517  0.24824635     0.17200
H1691       H  0.11741861  0.82003411  0.24911592     0.19700
H1692       H  0.26892118  0.89489586  0.24092544     0.13000
C1693       C  0.45584613  0.22894643  0.10530299     0.16900
C1694       C  0.46150279  0.20884621  0.10114015    -0.32100
C1695       C  0.45504065  0.18548736  0.10833141     0.21300
C1696       C  0.44401345  0.18261164  0.11927053     0.03500
C1697       C  0.43894591  0.20302893  0.12351940    -0.21900
C1698       C  0.44480165  0.22600136  0.11624093     0.12700
S1699       S  0.45968233  0.25728418  0.09755730    -0.05500
C1700       C  0.44597612  0.26502314  0.10914287    -0.09000
C1701       C  0.43923054  0.24672115  0.11851032    -0.25600
S1702       S  0.43534456  0.15158983  0.12630273    -0.02800
C1703       C  0.44629191  0.14211722  0.11432647    -0.16200
C1704       C  0.45668274  0.16241427  0.10548720    -0.14200
H1705       H  0.46953434  0.21071524  0.09251570     0.21100
H1706       H  0.42975712  0.20048658  0.13196327     0.17200
H1707       H  0.42984192  0.24792418  0.12642745     0.19700
H1708       H  0.46367853  0.15974255  0.09721692     0.13000
C1709       C  0.55387804  0.06251453  0.10779214     0.16900
C1710       C  0.58354889  0.07307791  0.10750552    -0.32100
C1711       C  0.59109642  0.05270027  0.10736771     0.21300
C1712       C  0.57010372  0.02303260  0.10743075     0.03500
C1713       C  0.54031516  0.01241901  0.10762669    -0.21900
C1714       C  0.53275121  0.03286702  0.10784962     0.12700
S1715       S  0.54044605  0.08383533  0.10830194    -0.05500
C1716       C  0.50589147  0.05254104  0.10858354    -0.09000
C1717       C  0.50509873  0.02700016  0.10829991    -0.25600
S1718       S  0.58411314  0.00205377  0.10769845    -0.02800
C1719       C  0.61856108  0.03367382  0.10784161    -0.16200
C1720       C  0.61881476  0.05889078  0.10753425    -0.14200
H1721       H  0.60008584  0.09622391  0.10755395     0.21100
H1722       H  0.52379097  0.98927646  0.10776859     0.17200
H1723       H  0.48536405  0.00532097  0.10848150     0.19700
H1724       H  0.63833788  0.08072291  0.10774135     0.13000
C1725       C  0.36570261  0.00205504  0.16174111     0.16900
C1726       C  0.34763750  0.99683976  0.17107950    -0.32100
C1727       C  0.35864333  0.99812466  0.18212904     0.21300
C1728       C  0.38613489  0.00351668  0.18386593     0.03500
C1729       C  0.40415756  0.00839781  0.17448531    -0.21900
C1730       C  0.39343059  0.00797394  0.16340753     0.12700
S1731       S  0.35728907  0.00440137  0.14778988    -0.05500
C1732       C  0.39177395  0.01431936  0.14411260    -0.09000
C1733       C  0.40851810  0.01498188  0.15328276    -0.25600
S1734       S  0.39582723  0.00570694  0.19805319    -0.02800
C1735       C  0.36274964  0.00001802  0.20160000    -0.16200
C1736       C  0.34516574  0.99603750  0.19223410    -0.14200
H1737       H  0.32633715  0.99310830  0.16980852     0.21100
H1738       H  0.42597915  0.01346871  0.17578463     0.17200
H1739       H  0.43100030  0.02166630  0.15265805     0.19700
H1740       H  0.32396501  0.99279671  0.19277472     0.13000
C1741       C  0.76775837  0.70990188  0.06059327     0.16900
C1742       C  0.78060871  0.73367144  0.05285494    -0.32100
C1743       C  0.78362563  0.72833212  0.04128307     0.21300
C1744       C  0.77399798  0.70052272  0.03768462     0.03500
C1745       C  0.76148176  0.67704043  0.04537213    -0.21900
C1746       C  0.75864446  0.68236356  0.05684611     0.12700
S1747       S  0.76228270  0.71125324  0.07503333    -0.05500
C1748       C  0.74796570  0.67442357  0.07593746    -0.09000
C1749       C  0.74738367  0.66212474  0.06552649    -0.25600
S1750       S  0.77838196  0.69773780  0.02342217    -0.02800
C1751       C  0.79355431  0.73454604  0.02202411    -0.16200
C1752       C  0.79532169  0.74819111  0.03230369    -0.14200
H1753       H  0.78793443  0.75529253  0.05572101     0.21100
H1754       H  0.75418736  0.65541618  0.04250844     0.17200
H1755       H  0.73956229  0.63948107  0.06438564     0.19700
H1756       H  0.80393025  0.77110389  0.03309626     0.13000
C1757       C  0.32492910  0.01406090  0.04580249     0.16900
C1758       C  0.32638451  0.01793901  0.05778814    -0.32100
C1759       C  0.34801353  0.01706314  0.06395626     0.21300
C1760       C  0.36685375  0.01192386  0.05843563     0.03500
C1761       C  0.36505967  0.00758475  0.04652914    -0.21900
C1762       C  0.34395344  0.00912107  0.04035819     0.12700
S1763       S  0.30162956  0.01608867  0.03659457    -0.05500
C1764       C  0.31803678  0.01073371  0.02523649    -0.09000
C1765       C  0.34008909  0.00709502  0.02865857    -0.25600
S1766       S  0.39284140  0.01364099  0.06716919    -0.02800
C1767       C  0.37868515  0.02186429  0.07844041    -0.16200
C1768       C  0.35456356  0.02257109  0.07549600    -0.14200
H1769       H  0.31191113  0.02233968  0.06206130     0.21100
H1770       H  0.38014681  0.00412262  0.04219920     0.17200
H1771       H  0.35295726  0.00330537  0.02295041     0.19700
H1772       H  0.34334218  0.02820217  0.08134487     0.13000
C1773       C  0.75536875  0.98310340  0.05186350     0.16900
C1774       C  0.74346090  0.97687618  0.06293412    -0.32100
C1775       C  0.73510061  0.99471667  0.06734175     0.21300
C1776       C  0.73822545  0.01756784  0.06094394     0.03500
C1777       C  0.74988563  0.02362061  0.04983309    -0.21900
C1778       C  0.75847851  0.00593027  0.04547759     0.12700
S1779       S  0.76833488  0.96509645  0.04527381    -0.05500
C1780       C  0.77850491  0.98875136  0.03376075    -0.09000
C1781       C  0.77146300  0.00911832  0.03507540    -0.25600
S1782       S  0.72803326  0.03744831  0.06798208    -0.02800
C1783       C  0.71955330  0.01487445  0.07972440    -0.16200
C1784       C  0.72429886  0.99298827  0.07812839    -0.14200
H1785       H  0.74138378  0.95927743  0.06798460     0.21100
H1786       H  0.75270257  0.04170696  0.04489731     0.17200
H1787       H  0.77650158  0.02599249  0.02887006     0.19700
H1788       H  0.72088138  0.97723848  0.08461621     0.13000
C1789       C  0.83204400  0.90556669  0.01583975     0.16900
C1790       C  0.83343817  0.88183534  0.01920839    -0.32100
C1791       C  0.83219484  0.86361982  0.01055437     0.21300
C1792       C  0.83024734  0.86936215  0.99908093     0.03500
C1793       C  0.82930548  0.89326537  0.99571074    -0.21900
C1794       C  0.83000622  0.91110402  0.00434795     0.12700
S1795       S  0.83024369  0.92833719  0.02503440    -0.05500
C1796       C  0.82619247  0.94526534  0.01329608    -0.09000
C1797       C  0.82700432  0.93404668  0.00281653    -0.25600
S1798       S  0.82704686  0.84407900  0.98989355    -0.02800
C1799       C  0.82758308  0.82472767  0.00156384    -0.16200
C1800       C  0.83098670  0.83811694  0.01205277    -0.14200
H1801       H  0.83435336  0.87717361  0.02820143     0.21100
H1802       H  0.82706636  0.89717131  0.98674395     0.17200
H1803       H  0.82376976  0.94107545  0.99455708     0.19700
H1804       H  0.83101064  0.82900034  0.02032377     0.13000
C1805       C  0.33819532  0.26899809  0.06138861     0.16900
C1806       C  0.32100903  0.24823393  0.05293683    -0.32100
C1807       C  0.31999890  0.25837876  0.04194230     0.21300
C1808       C  0.33540063  0.28789790  0.03950907     0.03500
C1809       C  0.35238121  0.30863433  0.04796936    -0.21900
C1810       C  0.35349418  0.29850407  0.05893435     0.12700
S1811       S  0.34347521  0.26117312  0.07506823    -0.05500
C1812       C  0.36668772  0.29803493  0.07751034    -0.09000
C1813       C  0.36982377  0.31527102  0.06814805    -0.25600
S1814       S  0.33245916  0.29587514  0.02558075    -0.02800
C1815       C  0.31020902  0.25902061  0.02290897    -0.16200
C1816       C  0.30526330  0.24166774  0.03246703    -0.14200
H1817       H  0.30932940  0.22517778  0.05479879     0.21100
H1818       H  0.36463999  0.33167936  0.04602485     0.17200
H1819       H  0.38406094  0.33878231  0.06796407     0.19700
H1820       H  0.29237977  0.21812447  0.03241725     0.13000
C1821       C  0.27531384  0.13267282  0.00925805     0.16900
C1822       C  0.27995371  0.11230581  0.01438394    -0.32100
C1823       C  0.27850780  0.09102343  0.00725288     0.21300
C1824       C  0.27232364  0.09003701  0.99561664     0.03500
C1825       C  0.26721619  0.10989664  0.99058584    -0.21900
C1826       C  0.26911876  0.13126185  0.99762151     0.12700
S1827       S  0.27887773  0.16208348  0.01596722    -0.05500
C1828       C  0.27269903  0.17273071  0.00285811    -0.09000
C1829       C  0.26733118  0.15380960  0.99396347    -0.25600
S1830       S  0.27364604  0.06453581  0.98813521    -0.02800
C1831       C  0.28287114  0.05478001  0.00072903    -0.16200
C1832       C  0.28424291  0.07041389  0.01029631    -0.14200
H1833       H  0.28545453  0.11362520  0.02341600     0.21100
H1834       H  0.26304040  0.10940981  0.98144581     0.17200
H1835       H  0.26375407  0.15718764  0.98508764     0.19700
H1836       H  0.29053333  0.06786453  0.01883844     0.13000
C1837       C  0.05704715  0.28013661  0.05205574     0.16900
C1838       C  0.06317305  0.29120420  0.06329397    -0.32100
C1839       C  0.04506615  0.29899961  0.06796697     0.21300
C1840       C  0.02197776  0.29593579  0.06170120     0.03500
C1841       C  0.01603946  0.28512890  0.05046635    -0.21900
C1842       C  0.03406185  0.27730763  0.04582115     0.12700
S1843       S  0.07569288  0.26854308  0.04491197    -0.05500
C1844       C  0.05224079  0.25975535  0.03335624    -0.09000
C1845       C  0.03131800  0.26585472  0.03512821    -0.25600
S1846       S  0.00172509  0.30527328  0.06897959    -0.02800
C1847       C  0.02452926  0.31350324  0.08064098    -0.16200
C1848       C  0.04675087  0.30925378  0.07886556    -0.14200
H1849       H  0.08099907  0.29327892  0.06822442     0.21100
H1850       H  0.99788532  0.28254773  0.04560800     0.17200
H1851       H  0.01464763  0.26167842  0.02891915     0.19700
H1852       H  0.06265054  0.31257852  0.08530249     0.13000
C1853       C  0.18086136  0.21578779  0.01191713     0.16900
C1854       C  0.15875426  0.21428809  0.01842402    -0.32100
C1855       C  0.13742437  0.21615400  0.01251357     0.21300
C1856       C  0.13767155  0.21869114  0.00065598     0.03500
C1857       C  0.15950950  0.21983002  0.99416440    -0.21900
C1858       C  0.18114718  0.21862754  0.00007910     0.12700
S1859       S  0.21005066  0.21608677  0.01739813    -0.05500
C1860       C  0.22309437  0.22069681  0.00359637    -0.09000
C1861       C  0.20504649  0.22125181  0.99528565    -0.25600
S1862       S  0.11086128  0.22213995  0.99514058    -0.02800
C1863       C  0.09949450  0.22098659  0.00896964    -0.16200
C1864       C  0.11547571  0.21729149  0.01732785    -0.14200
H1865       H  0.15870481  0.21268380  0.02770237     0.21100
H1866       H  0.16013673  0.22246496  0.98491980     0.17200
H1867       H  0.20933382  0.22400683  0.98615881     0.19700
H1868       H  0.11183989  0.21633066  0.02648443     0.13000
C1869       C  0.90197943  0.09862273  0.00669799     0.16900
C1870       C  0.91981849  0.12893974  0.00703639    -0.32100
C1871       C  0.94962031  0.14219952  0.00527491     0.21300
C1872       C  0.96125956  0.12619543  0.00276675     0.03500
C1873       C  0.94311162  0.09562183  0.00206386    -0.21900
C1874       C  0.91320083  0.08215370  0.00431400     0.12700
S1875       S  0.86631379  0.07904368  0.01044504    -0.05500
C1876       C  0.86617701  0.04798996  0.00913257    -0.09000
C1877       C  0.89240795  0.05274392  0.00550700    -0.25600
S1878       S  0.99864031  0.14674307  0.00217601    -0.02800
C1879       C  0.99818154  0.17665980  0.00580139    -0.16200
C1880       C  0.97055717  0.17099331  0.00692899    -0.14200
H1881       H  0.91109269  0.14158495  0.00933458     0.21100
H1882       H  0.95214515  0.08287199  0.00054229     0.17200
H1883       H  0.89653123  0.03587480  0.00457579     0.19700
H1884       H  0.96609122  0.18686252  0.00958212     0.13000
C1885       C  0.01223667  0.66834736  0.06642723     0.16900
C1886       C  0.00455688  0.67378656  0.05564801    -0.32100
C1887       C  0.02477304  0.70010629  0.05016651     0.21300
C1888       C  0.05154694  0.72005636  0.05516517     0.03500
C1889       C  0.05933571  0.71455686  0.06594366    -0.21900
C1890       C  0.03899824  0.68826888  0.07147835     0.12700
S1891       S  0.99015935  0.63820228  0.07456939    -0.05500
C1892       C  0.01704903  0.65249827  0.08499323    -0.09000
C1893       C  0.04196160  0.67924336  0.08216535    -0.25600
S1894       S  0.07279226  0.75078594  0.04714740    -0.02800
C1895       C  0.04530879  0.73672861  0.03687944    -0.16200
C1896       C  0.02108557  0.70947579  0.03972384    -0.14200
H1897       H  0.98356267  0.65829370  0.05176023     0.21100
H1898       H  0.08018134  0.73022086  0.06989306     0.17200
H1899       H  0.06084338  0.69168352  0.08771809     0.19700
H1900       H  0.00173927  0.69718513  0.03439121     0.13000
C1901       C  0.19067706  0.91537778  0.01281871     0.16900
C1902       C  0.16726218  0.89409628  0.01945510    -0.32100
C1903       C  0.14466065  0.86920602  0.01380462     0.21300
C1904       C  0.14502631  0.86575453  0.00204669     0.03500
C1905       C  0.16847580  0.88703541  0.99540873    -0.21900
C1906       C  0.19129385  0.91175107  0.00109076     0.12700
S1907       S  0.22069717  0.94672166  0.01808184    -0.05500
C1908       C  0.23460242  0.95489473  0.00436840    -0.09000
C1909       C  0.21637305  0.93429277  0.99620480    -0.25600
S1910       S  0.11560657  0.83371595  0.99689678    -0.02800
C1911       C  0.10299881  0.82457455  0.01077476    -0.16200
C1912       C  0.12068303  0.84569329  0.01884543    -0.14200
H1913       H  0.16688568  0.89661184  0.02865052     0.21100
H1914       H  0.16912242  0.88426053  0.98624815     0.17200
H1915       H  0.22122929  0.93551175  0.98715634     0.19700
H1916       H  0.11641366  0.84382072  0.02797435     0.13000
C1917       C  0.96314627  0.77835087  0.00157686     0.16900
C1918       C  0.94119882  0.77684037  0.99475416    -0.32100
C1919       C  0.92018763  0.77943878  0.00023660     0.21300
C1920       C  0.92127405  0.78407711  0.01194884     0.03500
C1921       C  0.94350241  0.78599986  0.01876932    -0.21900
C1922       C  0.96409044  0.78259357  0.01332750     0.12700
S1923       S  0.98926392  0.77339906  0.99669244    -0.05500
C1924       C  0.00120231  0.77621264  0.01066841    -0.09000
C1925       C  0.98588069  0.78142518  0.01857945    -0.25600
S1926       S  0.89264068  0.78498514  0.01695349    -0.02800
C1927       C  0.87856214  0.77827108  0.00315397    -0.16200
C1928       C  0.89606428  0.77637492  0.99516432    -0.14200
H1929       H  0.93995296  0.77279508  0.98561283     0.21100
H1930       H  0.94410702  0.78895299  0.02797458     0.17200
H1931       H  0.98997657  0.78352355  0.02775252     0.19700
H1932       H  0.89119942  0.77219717  0.98609131     0.13000
C1933       C  0.76186179  0.72376626  0.93968470     0.16900
C1934       C  0.78498405  0.74081495  0.94733978    -0.32100
C1935       C  0.78071424  0.73271223  0.95897064     0.21300
C1936       C  0.75480208  0.70843270  0.96282989     0.03500
C1937       C  0.73180736  0.69102156  0.95512723    -0.21900
C1938       C  0.73589093  0.69942107  0.94350031     0.12700
S1939       S  0.76186125  0.73154223  0.92544212    -0.05500
C1940       C  0.72638730  0.70180476  0.92458775    -0.09000
C1941       C  0.71549887  0.68657695  0.93483808    -0.25600
S1942       S  0.75338915  0.70369496  0.97742477    -0.02800
C1943       C  0.78798543  0.73510436  0.97836911    -0.16200
C1944       C  0.79980510  0.74784535  0.96778494    -0.14200
H1945       H  0.80506922  0.76016423  0.94442412     0.21100
H1946       H  0.71129372  0.67236053  0.95812280     0.17200
H1947       H  0.69346134  0.66781339  0.93599545     0.19700
H1948       H  0.82086714  0.76804331  0.96667898     0.13000
C1949       C  0.65719514  0.67827867  0.70806910     0.16900
C1950       C  0.66036139  0.67764550  0.72005647    -0.32100
C1951       C  0.68884984  0.69301576  0.72463738     0.21300
C1952       C  0.71297937  0.70835016  0.71758527     0.03500
C1953       C  0.70980219  0.70889624  0.70566349    -0.21900
C1954       C  0.68146407  0.69351956  0.70110843     0.12700
S1955       S  0.62473797  0.66122202  0.70068267    -0.05500
C1956       C  0.64420620  0.67451275  0.68809137    -0.09000
C1957       C  0.67421734  0.69150722  0.68972357    -0.25600
S1958       S  0.74563309  0.72613265  0.72467172    -0.02800
C1959       C  0.72682314  0.71280204  0.73734847    -0.16200
C1960       C  0.69669225  0.69541212  0.73604391    -0.14200
H1961       H  0.64150571  0.66577203  0.72555781     0.21100
H1962       H  0.72865509  0.72086406  0.70016078     0.17200
H1963       H  0.69012914  0.70210667  0.68295391     0.19700
H1964       H  0.68139909  0.68550939  0.74305609     0.13000
C1965       C  0.70674157  0.68429894  0.82001131     0.16900
C1966       C  0.68734203  0.67729550  0.82904464    -0.32100
C1967       C  0.69767064  0.67901120  0.84026572     0.21300
C1968       C  0.72581657  0.68654614  0.84243673     0.03500
C1969       C  0.74514410  0.69317029  0.83337525    -0.21900
C1970       C  0.73504512  0.69225623  0.82214688     0.12700
S1971       S  0.69922297  0.68643318  0.80590987    -0.05500
C1972       C  0.73477458  0.69884686  0.80284732    -0.09000
C1973       C  0.75123795  0.70054930  0.81230083    -0.25600
S1974       S  0.73451677  0.68895509  0.85672595    -0.02800
C1975       C  0.70009573  0.68042157  0.85975461    -0.16200
C1976       C  0.68282027  0.67539737  0.85015443    -0.14200
H1977       H  0.66550129  0.67189425  0.82742324     0.21100
H1978       H  0.76740102  0.69986703  0.83502763     0.17200
H1979       H  0.77420200  0.70878420  0.81206486     0.19700
H1980       H  0.66084987  0.67035673  0.85038770     0.13000
C1981       C  0.34701380  0.33491354  0.95075110     0.16900
C1982       C  0.33780859  0.32932097  0.96218437    -0.32100
C1983       C  0.33099105  0.30303228  0.96706312     0.21300
C1984       C  0.33395530  0.28346326  0.96094568     0.03500
C1985       C  0.34363603  0.28925885  0.94952126    -0.21900
C1986       C  0.34970367  0.31528072  0.94451774     0.12700
S1987       S  0.35371191  0.36439365  0.94310911    -0.05500
C1988       C  0.35968649  0.35005854  0.93125801    -0.09000
C1989       C  0.35710861  0.32392888  0.93326798    -0.25600
S1990       S  0.32285313  0.25206431  0.96825919    -0.02800
C1991       C  0.31338404  0.26512306  0.97960738    -0.16200
C1992       C  0.31943037  0.29277010  0.97773848    -0.14200
H1993       H  0.33502101  0.34434204  0.96693810     0.21100
H1994       H  0.34529711  0.27369357  0.94462588     0.17200
H1995       H  0.35950490  0.31149943  0.92678747     0.19700
H1996       H  0.31449674  0.30426524  0.98374748     0.13000
C1997       C  0.49320134  0.52487203  0.90118800     0.16900
C1998       C  0.51261473  0.55512398  0.90182023    -0.32100
C1999       C  0.54198243  0.56686788  0.89942018     0.21300
C2000       C  0.55165520  0.54929973  0.89658564     0.03500
C2001       C  0.53225508  0.51904064  0.89599189    -0.21900
C2002       C  0.50286198  0.50730336  0.89833243     0.12700
S2003       S  0.45658806  0.50650991  0.90341031    -0.05500
C2004       C  0.45425247  0.47486078  0.90037773    -0.09000
C2005       C  0.48058317  0.47850769  0.89789991    -0.25600
S2006       S  0.58808675  0.56776783  0.89389438    -0.02800
C2007       C  0.59029430  0.59948520  0.89659707    -0.16200
C2008       C  0.56408832  0.59574648  0.89942620    -0.14200
H2009       H  0.50511509  0.56891423  0.90397530     0.21100
H2010       H  0.53969744  0.50527787  0.89370709     0.17200
H2011       H  0.48318353  0.46111567  0.89565804     0.19700
H2012       H  0.56136004  0.61321338  0.90136070     0.13000
C2013       C  0.34118278  0.32713048  0.72499598     0.16900
C2014       C  0.34484549  0.32997699  0.71307276    -0.32100
C2015       C  0.34858196  0.35478899  0.70787569     0.21300
C2016       C  0.34883807  0.37595334  0.71424219     0.03500
C2017       C  0.34530508  0.37319444  0.72620298    -0.21900
C2018       C  0.34142821  0.34827151  0.73140952     0.12700
S2019       S  0.33500179  0.29796140  0.73278168    -0.05500
C2020       C  0.33248019  0.31423344  0.74482644    -0.09000
C2021       C  0.33661362  0.34105800  0.74284622    -0.25600
S2022       S  0.35363306  0.40432946  0.70623279    -0.02800
C2023       C  0.35536817  0.38755815  0.69413260    -0.16200
C2024       C  0.35226278  0.36123962  0.69639005    -0.14200
H2025       H  0.34447516  0.31340177  0.70804351     0.21100
H2026       H  0.34530687  0.38959411  0.73120932     0.17200
H2027       H  0.33516099  0.35406951  0.74934478     0.19700
H2028       H  0.35296817  0.34748196  0.69005390     0.13000
C2029       C  0.36286245  0.33286511  0.84723792     0.16900
C2030       C  0.35633467  0.31239911  0.83870472    -0.32100
C2031       C  0.35430454  0.31975371  0.82734486     0.21300
C2032       C  0.35924925  0.34656394  0.82451989     0.03500
C2033       C  0.36614534  0.36721460  0.83304932    -0.21900
C2034       C  0.36746064  0.35955697  0.84446171     0.12700
S2035       S  0.36402317  0.32711628  0.86160951    -0.05500
C2036       C  0.37025026  0.36081093  0.86393883    -0.09000
C2037       C  0.37175584  0.37573554  0.85403263    -0.25600
S2038       S  0.35381976  0.35043074  0.81031518    -0.02800
C2039       C  0.34407942  0.31529153  0.80826266    -0.16200
C2040       C  0.34574686  0.30179425  0.81804406    -0.14200
H2041       H  0.35199526  0.29125628  0.84087284     0.21100
H2042       H  0.36929998  0.38789204  0.83093682     0.17200
H2043       H  0.37496520  0.39691805  0.85386434     0.19700
H2044       H  0.33968384  0.27951568  0.81843898     0.13000
C2045       C  0.35181140  0.01138168  0.96416215     0.16900
C2046       C  0.36419864  0.01711044  0.95318459    -0.32100
C2047       C  0.36815055  0.99635159  0.94838092     0.21300
C2048       C  0.36058293  0.97128668  0.95435428     0.03500
C2049       C  0.34870109  0.96583780  0.96540450    -0.21900
C2050       C  0.34430729  0.98635140  0.97011905     0.12700
S2051       S  0.34279203  0.03243880  0.97102076    -0.05500
C2052       C  0.32814598  0.00701340  0.98201561    -0.09000
C2053       C  0.33119212  0.98395665  0.98040649    -0.25600
S2054       S  0.36552214  0.94802129  0.94685404    -0.02800
C2055       C  0.37769832  0.97210811  0.93547185    -0.16200
C2056       C  0.37813358  0.99702501  0.93753101    -0.14200
H2057       H  0.36961959  0.03643182  0.94844446     0.21100
H2058       H  0.34230692  0.94601616  0.96997973     0.17200
H2059       H  0.32293346  0.96566768  0.98623738     0.19700
H2060       H  0.38455647  0.01424592  0.93131988     0.13000
C2061       C  0.35413773  0.97458753  0.72740053     0.16900
C2062       C  0.34870820  0.96367444  0.71619160    -0.32100
C2063       C  0.36783643  0.95723338  0.71159339     0.21300
C2064       C  0.39152783  0.96166591  0.71782003     0.03500
C2065       C  0.39721166  0.97296502  0.72902625    -0.21900
C2066       C  0.37785292  0.97918143  0.73368837     0.12700
S2067       S  0.33211411  0.98158819  0.73470296    -0.05500
C2068       C  0.35482678  0.99067136  0.74645800    -0.09000
C2069       C  0.37850225  0.98866098  0.74465595    -0.25600
S2070       S  0.41099141  0.95073555  0.71085416    -0.02800
C2071       C  0.38670616  0.93974046  0.69944765    -0.16200
C2072       C  0.36515139  0.94502281  0.70107542    -0.14200
H2073       H  0.32990322  0.95963607  0.71136909     0.21100
H2074       H  0.41542898  0.97602851  0.73399371     0.17200
H2075       H  0.39452110  0.99264276  0.75115156     0.19700
H2076       H  0.34764978  0.93906244  0.69501696     0.13000
C2077       C  0.30150180  0.10609217  0.77745409     0.16900
C2078       C  0.28655606  0.11987056  0.77712197    -0.32100
C2079       C  0.30316573  0.15026547  0.77643532     0.21300
C2080       C  0.33336333  0.16631456  0.77604676     0.03500
C2081       C  0.34834556  0.15247954  0.77625049    -0.21900
C2082       C  0.33169314  0.12199070  0.77697925     0.12700
S2083       S  0.28515827  0.06949555  0.77861985    -0.05500
C2084       C  0.31928737  0.07544517  0.77840818    -0.09000
C2085       C  0.34208841  0.10444331  0.77746148    -0.25600
S2086       S  0.34945194  0.20308279  0.77558936    -0.02800
C2087       C  0.31510536  0.19665056  0.77593120    -0.16200
C2088       C  0.29255937  0.16753076  0.77631849    -0.14200
H2089       H  0.26298870  0.10743617  0.77751970     0.21100
H2090       H  0.37192193  0.16493356  0.77598186     0.17200
H2091       H  0.36493591  0.11223731  0.77723437     0.19700
H2092       H  0.26963852  0.15943164  0.77667819     0.13000
C2093       C  0.38414097  0.98987044  0.82935477     0.16900
C2094       C  0.39553000  0.98024324  0.83771844    -0.32100
C2095       C  0.39252487  0.98489364  0.84931156     0.21300
C2096       C  0.37928952  0.99902840  0.85243156     0.03500
C2097       C  0.36830658  0.00904599  0.84406450    -0.21900
C2098       C  0.37080074  0.00389380  0.83248579     0.12700
S2099       S  0.38346664  0.98422575  0.81489817    -0.05500
C2100       C  0.36473305  0.00065200  0.81303897    -0.09000
C2101       C  0.35975874  0.01026110  0.82316053    -0.25600
S2102       S  0.37614456  0.00095084  0.86693704    -0.02800
C2103       C  0.39240355  0.98209398  0.86886036    -0.16200
C2104       C  0.40024873  0.97526839  0.85870601    -0.14200
H2105       H  0.40543977  0.96877247  0.83530816     0.21100
H2106       H  0.35743408  0.01956144  0.84649107     0.17200
H2107       H  0.34780904  0.02047109  0.82371082     0.19700
H2108       H  0.41002981  0.96291163  0.85820656     0.13000
C2109       C  0.21613650  0.78664868  0.89919382     0.16900
C2110       C  0.23666527  0.81518674  0.89559094    -0.32100
C2111       C  0.26590805  0.82735376  0.89858910     0.21300
C2112       C  0.27447153  0.81172356  0.90478216     0.03500
C2113       C  0.25389165  0.78310950  0.90839363    -0.21900
C2114       C  0.22452388  0.77103133  0.90551291     0.12700
S2115       S  0.17958311  0.76842977  0.89663798    -0.05500
C2116       C  0.17533434  0.73946743  0.90426654    -0.09000
C2117       C  0.20111752  0.74387000  0.90849134    -0.25600
S2118       S  0.31097884  0.83082872  0.90780901    -0.02800
C2119       C  0.31456865  0.86028490  0.90082828    -0.16200
C2120       C  0.28879600  0.85519765  0.89629425    -0.14200
H2121       H  0.23006621  0.82752693  0.89080105     0.21100
H2122       H  0.26042080  0.77097049  0.91337278     0.17200
H2123       H  0.20261922  0.72817382  0.91352678     0.19700
H2124       H  0.28677400  0.87128208  0.89183146     0.13000
C2125       C  0.06585902  0.72281010  0.95590592     0.16900
C2126       C  0.06919991  0.74385527  0.96365015    -0.32100
C2127       C  0.05746745  0.73451514  0.97470867     0.21300
C2128       C  0.04293521  0.70548398  0.97786500     0.03500
C2129       C  0.03946981  0.68443998  0.97011144    -0.21900
C2130       C  0.05141220  0.69379342  0.95909829     0.12700
S2131       S  0.07935283  0.72981629  0.94225206    -0.05500
C2132       C  0.06573464  0.69332124  0.94084033    -0.09000
C2133       C  0.05130808  0.67677630  0.95050716    -0.25600
S2134       S  0.03130699  0.69866940  0.99177106    -0.02800
C2135       C  0.04624907  0.73538828  0.99347670    -0.16200
C2136       C  0.05927017  0.75175157  0.98359382    -0.14200
H2137       H  0.08081339  0.76657660  0.96121581     0.21100
H2138       H  0.02839431  0.66181600  0.97262942     0.17200
H2139       H  0.04170995  0.65363413  0.95128464     0.19700
H2140       H  0.07035280  0.77513021  0.98301340     0.13000
C2141       C  0.16472028  0.82205174  0.78590456     0.16900
C2142       C  0.19515629  0.84087935  0.78609079    -0.32100
C2143       C  0.20726125  0.87035442  0.78372944     0.21300
C2144       C  0.18988503  0.88061791  0.78116971     0.03500
C2145       C  0.15944921  0.86176844  0.78093207    -0.21900
C2146       C  0.14734039  0.83234853  0.78342053     0.12700
S2147       S  0.14581236  0.78558128  0.78860180    -0.05500
C2148       C  0.11416147  0.78424182  0.78643147    -0.09000
C2149       C  0.11826282  0.81072934  0.78373300    -0.25600
S2150       S  0.20878316  0.91717716  0.77869600    -0.02800
C2151       C  0.24040189  0.91868227  0.78128356    -0.16200
C2152       C  0.23631703  0.89212288  0.78378646    -0.14200
H2153       H  0.20879216  0.83294761  0.78807921     0.21100
H2154       H  0.14580741  0.86972039  0.77899214     0.17200
H2155       H  0.10090983  0.81392473  0.78196242     0.19700
H2156       H  0.25365420  0.88896357  0.78565360     0.13000
C2157       C  0.05818282  0.67758310  0.73337115     0.16900
C2158       C  0.06775560  0.68351762  0.72197253    -0.32100
C2159       C  0.07941775  0.66871592  0.71745186     0.21300
C2160       C  0.08090714  0.64837578  0.72389600     0.03500
C2161       C  0.07094875  0.64211729  0.73529626    -0.21900
C2162       C  0.05982451  0.65743850  0.73991965     0.12700
S2163       S  0.04579655  0.69524210  0.74060695    -0.05500
C2164       C  0.04305295  0.67568812  0.75270386    -0.09000
C2165       C  0.05099918  0.65612888  0.75106291    -0.25600
S2166       S  0.09730127  0.63404759  0.71695314    -0.02800
C2167       C  0.10284580  0.65622223  0.70529912    -0.16200
C2168       C  0.09176200  0.67318230  0.70682796    -0.14200
H2169       H  0.06706472  0.69973484  0.71696567     0.21100
H2170       H  0.07268457  0.62671968  0.74044283     0.17200
H2171       H  0.05149318  0.64266043  0.75775286     0.19700
H2172       H  0.09363520  0.68880486  0.70059984     0.13000
C2173       C  0.03534538  0.65130769  0.83714747     0.16900
C2174       C  0.04742539  0.64400634  0.84608305    -0.32100
C2175       C  0.04231745  0.64847640  0.85739157     0.21300
C2176       C  0.02514173  0.65888555  0.85976783     0.03500
C2177       C  0.01294844  0.66615094  0.85080247    -0.21900
C2178       C  0.01887261  0.66256266  0.83944831     0.12700
S2179       S  0.04122844  0.64974905  0.82288664    -0.05500
C2180       C  0.02226070  0.66544937  0.81991897    -0.09000
C2181       C  0.01134949  0.67082374  0.82956459    -0.25600
S2182       S  0.02261848  0.66372828  0.87412354    -0.02800
C2183       C  0.04568594  0.65246955  0.87687774    -0.16200
C2184       C  0.05419458  0.64486980  0.86713791    -0.14200
H2185       H  0.06111562  0.63615348  0.84428632     0.21100
H2186       H  0.00030916  0.67519205  0.85259310     0.17200
H2187       H  0.99963412  0.68133403  0.82938516     0.19700
H2188       H  0.06912814  0.63797515  0.86715371     0.13000
C2189       C  0.89432660  0.74133057  0.77526053     0.16900
C2190       C  0.92225814  0.74924346  0.77861417    -0.32100
C2191       C  0.92851150  0.72795597  0.77804791     0.21300
C2192       C  0.90802858  0.70004738  0.77420493     0.03500
C2193       C  0.88008989  0.69217096  0.77076001    -0.21900
C2194       C  0.87371795  0.71342321  0.77143835     0.12700
S2195       S  0.88216147  0.76368620  0.77585798    -0.05500
C2196       C  0.84881255  0.73511106  0.77099993    -0.09000
C2197       C  0.84750180  0.70974026  0.76893986    -0.25600
S2198       S  0.92002717  0.67739364  0.77431245    -0.02800
C2199       C  0.95288899  0.70585688  0.77963964    -0.16200
C2200       C  0.95424004  0.73140764  0.78115981    -0.14200
H2201       H  0.93830056  0.77094931  0.78169693     0.21100
H2202       H  0.86391266  0.67034643  0.76783756     0.17200
H2203       H  0.82820462  0.68949752  0.76606808     0.19700
H2204       H  0.97312037  0.75152316  0.78437106     0.13000
C2205       C  0.21771792  0.40569973  0.89858559     0.16900
C2206       C  0.24788847  0.41916028  0.89757319    -0.32100
C2207       C  0.25820128  0.40113348  0.89648205     0.21300
C2208       C  0.23929247  0.37108299  0.89620013     0.03500
C2209       C  0.20914255  0.35767095  0.89700667    -0.21900
C2210       C  0.19888947  0.37564955  0.89830550     0.12700
S2211       S  0.20091377  0.42353286  0.90070547    -0.05500
C2212       C  0.16826421  0.39011461  0.90130561    -0.09000
C2213       C  0.17048136  0.36659279  0.89980408    -0.25600
S2214       S  0.25605723  0.35292832  0.89550846    -0.02800
C2215       C  0.28893670  0.38612759  0.89576003    -0.16200
C2216       C  0.28681169  0.40993437  0.89614169    -0.14200
H2217       H  0.26271762  0.44259685  0.89794777     0.21100
H2218       H  0.19437176  0.33420222  0.89695638     0.17200
H2219       H  0.15230232  0.34401864  0.89998493     0.19700
H2220       H  0.30519354  0.43238630  0.89655094     0.13000
C2221       C  0.07491958  0.30178454  0.97510379     0.16900
C2222       C  0.08548237  0.32533408  0.96751905    -0.32100
C2223       C  0.07218235  0.32005425  0.95667425     0.21300
C2224       C  0.04922451  0.29252360  0.95345425     0.03500
C2225       C  0.03871362  0.26875333  0.96105438    -0.21900
C2226       C  0.05222613  0.27403472  0.97194179     0.12700
S2227       S  0.08766491  0.30432950  0.98876255    -0.05500
C2228       C  0.06243621  0.26751041  0.99033611    -0.09000
C2229       C  0.04517262  0.25409212  0.98064821    -0.25600
S2230       S  0.03645169  0.29110747  0.93976616    -0.02800
C2231       C  0.06256395  0.32794976  0.93840996    -0.16200
C2232       C  0.07985293  0.34029518  0.94814421    -0.14200
H2233       H  0.10330016  0.34695758  0.96999201     0.21100
H2234       H  0.02084598  0.24714980  0.95859579     0.17200
H2235       H  0.02775538  0.23126079  0.98016383     0.19700
H2236       H  0.09759653  0.36295765  0.94888233     0.13000
C2237       C  0.06191456  0.48702690  0.91184725     0.16900
C2238       C  0.04965165  0.50359056  0.91166632    -0.32100
C2239       C  0.06850846  0.53388432  0.91321858     0.21300
C2240       C  0.09815838  0.54693930  0.91498086     0.03500
C2241       C  0.11033659  0.53041310  0.91521587    -0.21900
C2242       C  0.09160072  0.50028300  0.91355920     0.12700
S2243       S  0.04315847  0.45015990  0.90978109    -0.05500
C2244       C  0.07571344  0.45272735  0.91119017    -0.09000
C2245       C  0.09960805  0.48080089  0.91319096    -0.25600
S2246       S  0.11761025  0.58389986  0.91631651    -0.02800
C2247       C  0.08564099  0.58213670  0.91436735    -0.16200
C2248       C  0.06114652  0.55400673  0.91289041    -0.14200
H2249       H  0.02652249  0.49338084  0.91020911     0.21100
H2250       H  0.13354728  0.54068942  0.91646527     0.17200
H2251       H  0.12181423  0.48673728  0.91419165     0.19700
H2252       H  0.03929023  0.54864761  0.91136677     0.13000
C2253       C  0.17217214  0.24638901  0.78523068     0.16900
C2254       C  0.15183553  0.25062665  0.79022607    -0.32100
C2255       C  0.13419470  0.25475625  0.78282315     0.21300
C2256       C  0.13598276  0.25368622  0.77098100     0.03500
C2257       C  0.15580442  0.24874189  0.76599605    -0.21900
C2258       C  0.17412548  0.24561228  0.77338577     0.12700
S2259       S  0.19837655  0.24525583  0.79266237    -0.05500
C2260       C  0.21261553  0.24463375  0.77966520    -0.09000
C2261       C  0.19710298  0.24426206  0.77014549    -0.25600
S2262       S  0.11418352  0.26117644  0.76346001    -0.02800
C2263       C  0.10297074  0.26638054  0.77639801    -0.16200
C2264       C  0.11514365  0.26194201  0.78599300    -0.14200
H2265       H  0.15087006  0.25216997  0.79945715     0.21100
H2266       H  0.15788584  0.24882621  0.75675285     0.17200
H2267       H  0.20351777  0.24509315  0.76131666     0.19700
H2268       H  0.11099174  0.26473946  0.79478962     0.13000
C2269       C  0.12436138  0.40514473  0.71565446     0.16900
C2270       C  0.12638397  0.40049327  0.72739736    -0.32100
C2271       C  0.10044870  0.38089106  0.73324741     0.21300
C2272       C  0.07361666  0.36669449  0.72769066     0.03500
C2273       C  0.07160165  0.37126839  0.71592966    -0.21900
C2274       C  0.09759493  0.39067776  0.71005747     0.12700
S2275       S  0.15328778  0.42789194  0.70701091    -0.05500
C2276       C  0.12919638  0.41757682  0.69564819    -0.09000
C2277       C  0.10022257  0.39760954  0.69858624    -0.25600
S2278       S  0.04486348  0.34303111  0.73625108    -0.02800
C2279       C  0.06929762  0.35202865  0.74740295    -0.16200
C2280       C  0.09810197  0.37258234  0.74454628    -0.14200
H2281       H  0.14730690  0.41144546  0.73176047     0.21100
H2282       H  0.05073412  0.35991256  0.71151590     0.17200
H2283       H  0.08192915  0.38873923  0.69268199     0.19700
H2284       H  0.11650355  0.38020150  0.75031341     0.13000
C2285       C  0.06791014  0.35175435  0.83105788     0.16900
C2286       C  0.08133602  0.36881521  0.84085931    -0.32100
C2287       C  0.06767588  0.35748539  0.85147586     0.21300
C2288       C  0.04175689  0.33038051  0.85235579     0.03500
C2289       C  0.02829659  0.31327655  0.84253179    -0.21900
C2290       C  0.04200815  0.32460436  0.83189211     0.12700
S2291       S  0.08140245  0.36137295  0.81743025    -0.05500
C2292       C  0.05187804  0.32844078  0.81275251    -0.09000
C2293       C  0.03270914  0.31111521  0.82140620    -0.25600
S2294       S  0.02916219  0.32047575  0.86613647    -0.02800
C2295       C  0.05921037  0.35320172  0.87073103    -0.16200
C2296       C  0.07771673  0.37063392  0.86195144    -0.14200
H2297       H  0.10169042  0.38992677  0.84025198     0.21100
H2298       H  0.00816674  0.29198775  0.84316188     0.17200
H2299       H  0.01326967  0.28955920  0.82012272     0.19700
H2300       H  0.09783005  0.39171066  0.86319246     0.13000
C2301       C  0.68389804  0.85061990  0.89265168     0.16900
C2302       C  0.69121111  0.83219348  0.88809757    -0.32100
C2303       C  0.67524765  0.80322245  0.89182347     0.21300
C2304       C  0.65279684  0.79290458  0.89966294     0.03500
C2305       C  0.64519352  0.81127097  0.90410364    -0.21900
C2306       C  0.66134781  0.84035809  0.90044425     0.12700
S2307       S  0.70154771  0.88672327  0.88956502    -0.05500
C2308       C  0.67816842  0.88802629  0.89879391    -0.09000
C2309       C  0.65787653  0.86179799  0.90399101    -0.25600
S2310       S  0.63733375  0.75746661  0.90361257    -0.02800
C2311       C  0.66166008  0.75677147  0.89471534    -0.16200
C2312       C  0.68024329  0.78250186  0.88886808    -0.14200
H2313       H  0.70899064  0.84024310  0.88209948     0.21100
H2314       H  0.62788123  0.80339928  0.91031313     0.17200
H2315       H  0.64172029  0.85867903  0.91010465     0.19700
H2316       H  0.69729469  0.78620981  0.88311814     0.13000
C2317       C  0.53006092  0.97650706  0.90848601     0.16900
C2318       C  0.56043534  0.99072276  0.90930361    -0.32100
C2319       C  0.57176923  0.97342119  0.90971909     0.21300
C2320       C  0.55364356  0.94330622  0.90950627     0.03500
C2321       C  0.52329660  0.92910772  0.90882097    -0.21900
C2322       C  0.51200773  0.94639639  0.90821862     0.12700
S2323       S  0.51202488  0.99350184  0.90736342    -0.05500
C2324       C  0.47987000  0.95967475  0.90640339    -0.09000
C2325       C  0.48320531  0.93662174  0.90703331    -0.25600
S2326       S  0.57159109  0.92621817  0.90949740    -0.02800
C2327       C  0.60393240  0.95997766  0.90962852    -0.16200
C2328       C  0.60070735  0.98313276  0.90985978    -0.14200
H2329       H  0.57463794  0.01423784  0.90935016     0.21100
H2330       H  0.50912811  0.90560455  0.90849036     0.17200
H2331       H  0.46549493  0.91389185  0.90654563     0.19700
H2332       H  0.61855546  0.00584262  0.90972727     0.13000
C2333       C  0.74558913  0.99885429  0.95777423     0.16900
C2334       C  0.74883873  0.00344409  0.96967734    -0.32100
C2335       C  0.76462207  0.99441925  0.97577119     0.21300
C2336       C  0.77706344  0.98180056  0.97026676     0.03500
C2337       C  0.77377920  0.97715979  0.95835276    -0.21900
C2338       C  0.75766758  0.98586116  0.95227362     0.12700
S2339       S  0.72605162  0.00699542  0.94893211    -0.05500
C2340       C  0.73393270  0.99245374  0.93769947    -0.09000
C2341       C  0.75108065  0.98217293  0.94075289    -0.25600
S2342       S  0.79576420  0.97283703  0.97923750    -0.02800
C2343       C  0.78619255  0.98566293  0.99056872    -0.16200
C2344       C  0.76964833  0.99655114  0.98739530    -0.14200
H2345       H  0.73914173  0.01326360  0.97402848     0.21100
H2346       H  0.78312902  0.96696576  0.95402721     0.17200
H2347       H  0.75753789  0.97161787  0.93492297     0.19700
H2348       H  0.76207267  0.00601900  0.99326042     0.13000
C2349       C  0.79216090  0.91139480  0.77144593     0.16900
C2350       C  0.80231589  0.89494413  0.76717558    -0.32100
C2351       C  0.79252463  0.86822100  0.77257338     0.21300
C2352       C  0.77392497  0.85868768  0.78190727     0.03500
C2353       C  0.76427411  0.87530957  0.78628191    -0.21900
C2354       C  0.77359150  0.90162926  0.78078571     0.12700
S2355       S  0.79927416  0.94317793  0.76559468    -0.05500
C2356       C  0.77670615  0.94286621  0.77579318    -0.09000
C2357       C  0.76484072  0.91965189  0.78335961    -0.25600
S2358       S  0.76270455  0.82500227  0.78680964    -0.02800
C2359       C  0.78297016  0.82334837  0.77612085    -0.16200
C2360       C  0.79805432  0.84799188  0.76924726    -0.14200
H2361       H  0.81637596  0.90215764  0.75975457     0.21100
H2362       H  0.74930369  0.86756451  0.79342454     0.17200
H2363       H  0.74975941  0.91561655  0.79015318     0.19700
H2364       H  0.81122080  0.85041966  0.76194434     0.13000
C2365       C  0.65393093  0.93340832  0.73393794     0.16900
C2366       C  0.63616156  0.91048460  0.72640095    -0.32100
C2367       C  0.63514654  0.91742871  0.71487260     0.21300
C2368       C  0.65031139  0.94595043  0.71100728     0.03500
C2369       C  0.66764989  0.96903090  0.71863239    -0.21900
C2370       C  0.66942457  0.96203348  0.73014122     0.12700
S2371       S  0.66087900  0.92905190  0.74786159    -0.05500
C2372       C  0.68545629  0.96617481  0.74860930    -0.09000
C2373       C  0.68740781  0.98101361  0.73858537    -0.25600
S2374       S  0.64731355  0.94931708  0.69647228    -0.02800
C2375       C  0.62624394  0.91186793  0.69560620    -0.16200
C2376       C  0.62120413  0.89792896  0.70615040    -0.14200
H2377       H  0.62471091  0.88808365  0.72928181     0.21100
H2378       H  0.68021405  0.99134330  0.71562471     0.17200
H2379       H  0.70247752  0.00421070  0.73732118     0.19700
H2380       H  0.60843179  0.87458554  0.70740022     0.13000
C2381       C  0.92226103  0.16765549  0.76844703     0.16900
C2382       C  0.90337553  0.13773834  0.76666941    -0.32100
C2383       C  0.87357288  0.12529038  0.76814958     0.21300
C2384       C  0.86285172  0.14185642  0.77113408     0.03500
C2385       C  0.88178404  0.17198653  0.77275716    -0.21900
C2386       C  0.91175807  0.18443823  0.77141549     0.12700
S2387       S  0.95919770  0.18618848  0.76779926    -0.05500
C2388       C  0.96075876  0.21698320  0.77164882    -0.09000
C2389       C  0.93387551  0.21299410  0.77320430    -0.25600
S2390       S  0.82601016  0.12203866  0.77322046    -0.02800
C2391       C  0.82530725  0.09124144  0.77012349    -0.16200
C2392       C  0.85215736  0.09632921  0.76748185    -0.14200
H2393       H  0.91163511  0.12458741  0.76453508     0.21100
H2394       H  0.87360806  0.18497703  0.77526410     0.17200
H2395       H  0.93074341  0.22981177  0.77581284     0.19700
H2396       H  0.85600346  0.07957356  0.76563369     0.13000
C2397       C  0.71046076  0.00351616  0.83057182     0.16900
C2398       C  0.69355377  0.99685598  0.84043374    -0.32100
C2399       C  0.70791368  0.00441856  0.85110827     0.21300
C2400       C  0.73790647  0.01850091  0.85199040     0.03500
C2401       C  0.75492698  0.02532985  0.84208438    -0.21900
C2402       C  0.74043299  0.01724105  0.83137987     0.12700
S2403       S  0.69675818  0.99473202  0.81690274    -0.05500
C2404       C  0.73167307  0.00927772  0.81215137    -0.09000
C2405       C  0.75275564  0.02055588  0.82080309    -0.25600
S2406       S  0.75068952  0.02413128  0.86586984    -0.02800
C2407       C  0.71513616  0.00668042  0.87046565    -0.16200
C2408       C  0.69483055  0.99771668  0.86162954    -0.14200
H2409       H  0.67007174  0.98553675  0.83983090     0.21100
H2410       H  0.77829253  0.03573584  0.84270916     0.17200
H2411       H  0.77577585  0.03021246  0.81944258     0.19700
H2412       H  0.67145920  0.98553700  0.86283080     0.13000
loop_ 
_geom_bond_atom_site_label_1 
_geom_bond_atom_site_label_2 
_geom_bond_distance 
_geom_bond_site_symmetry_2 
_ccdc_geom_bond_type 
O1            C4   1.264       .  A
O1           Cd6   2.472   1_565  S
C2           O11   1.267       .  A
C2            O7   1.265       .  A
C2         C2391   1.468       .  S
O3            C9   1.263       .  A
O3           Cd6   2.474   1_565  S
C4           O12   1.264       .  A
C4         C2356   1.466       .  S
C5           O10   1.268   1_545  A
C5            O8   1.263       .  A
C5         C2404   1.475       .  S
Cd6          O13   2.505       .  S
Cd6          O12   2.438   1_545  S
Cd6          O11   2.471       .  S
Cd6           O7   2.433       .  S
Cd6          O10   2.491   1_545  S
Cd6           O8   2.468       .  S
C9           O13   1.265   1_565  A
C9         C2372   1.477       .  S
O14          C17   1.261       .  A
O14         Cd19   2.469       .  S
C15          O24   1.261       .  A
C15          O20   1.268   1_565  A
C15        C2407   1.477   1_565  S
O16          C22   1.267       .  A
O16         Cd19   2.474       .  S
C17          O25   1.265       .  A
C17        C2340   1.476       .  S
C18          O23   1.267       .  A
C18          O21   1.268       .  A
C18        C2327   1.474       .  S
Cd19         O26   2.426       .  S
Cd19         O25   2.507       .  S
Cd19         O24   2.439       .  S
Cd19         O20   2.526   1_565  S
Cd19         O23   2.455       .  S
Cd19         O21   2.473       .  S
C22          O26   1.263       .  A
C22        C2308   1.465       .  S
O27          C30   1.263       .  A
O27         Cd32   2.477       .  S
C28          O37   1.265       .  A
C28          O33   1.264       .  A
C28        C2279   1.476       .  S
O29          C35   1.262       .  A
O29         Cd32   2.452       .  S
C30          O38   1.266       .  A
C30        C2292   1.477       .  S
C31          O36   1.264   1_655  A
C31          O34   1.268       .  A
C31        C2388   1.467       .  S
Cd32         O39   2.474       .  S
Cd32         O38   2.499       .  S
Cd32         O37   2.490       .  S
Cd32         O33   2.474       .  S
Cd32         O36   2.421       .  S
Cd32         O34   2.489   1_455  S
C35          O39   1.264       .  A
C35        C2263   1.467       .  S
O40          C43   1.270       .  A
O40         Cd45   2.522       .  S
C41          O50   1.264       .  A
C41          O46   1.269       .  A
C41        C2231   1.484       .  S
O42          C48   1.267       .  A
O42         Cd45   2.475       .  S
C43          O51   1.263       .  A
C43        C2295   1.478       .  S
C44          O49   1.266       .  A
C44          O47   1.268       .  A
C44        C2244   1.483       .  S
Cd45         O52   2.447       .  S
Cd45         O51   2.436       .  S
Cd45         O50   2.457       .  S
Cd45         O46   2.536       .  S
Cd45         O49   2.477       .  S
Cd45         O47   2.511       .  S
C48          O52   1.265       .  A
C48        C2212   1.469       .  S
O53          C56   1.263       .  A
O53         Cd58   2.468       .  S
C54          O63   1.269       .  A
C54          O59   1.265   1_655  A
C54        C2199   1.472       .  S
O55          C61   1.268       .  A
O55         Cd58   2.519       .  S
C56          O64   1.263       .  A
C56        C2148   1.468       .  S
C57          O62   1.266       .  A
C57          O60   1.264       .  A
C57        C2180   1.476       .  S
Cd58         O65   2.442       .  S
Cd58         O64   2.468       .  S
Cd58         O63   2.488   1_455  S
Cd58         O59   2.437       .  S
Cd58         O62   2.487       .  S
Cd58         O60   2.488       .  S
C61          O65   1.262       .  A
C61        C2164   1.476       .  S
O66          C69   1.267       .  A
O66         Cd71   2.477       .  S
C67          O76   1.267       .  A
C67          O72   1.262       .  A
C67        C2116   1.473       .  S
O68          C74   1.263       .  A
O68         Cd71   2.458       .  S
C69          O77   1.268       .  A
C69        C2247   1.484       .  S
C70          O75   1.261       .  A
C70          O73   1.266       .  A
C70        C2132   1.482       .  S
Cd71         O78   2.516       .  S
Cd71         O77   2.517       .  S
Cd71         O76   2.504       .  S
Cd71         O72   2.450       .  S
Cd71         O75   2.487       .  S
Cd71         O73   2.532       .  S
C74          O78   1.267       .  A
C74        C2183   1.478       .  S
O79          C82   1.265   1_565  A
O79         Cd84   2.492   1_565  S
C80          O89   1.261       .  A
C80          O85   1.266   1_565  A
C80        C2068   1.476       .  S
O81          C87   1.261       .  A
O81         Cd84   2.463   1_565  S
C82          O90   1.264       .  A
C82        C2100   1.478       .  S
C83          O88   1.263       .  A
C83          O86   1.269       .  A
C83        C2084   1.472       .  S
Cd84         O91   2.478   1_545  S
Cd84         O90   2.490       .  S
Cd84         O89   2.451   1_545  S
Cd84         O85   2.522       .  S
Cd84         O88   2.428       .  S
Cd84         O86   2.507       .  S
C87          O91   1.264       .  A
C87        C2151   1.468       .  S
O92          C95   1.266       .  A
O92         Cd97   2.485       .  S
C93         O102   1.261       .  A
C93          O98   1.267       .  A
C93        C2055   1.476       .  S
O94         C100   1.264       .  A
O94         Cd97   2.464       .  S
C95         O103   1.267       .  A
C95        C2103   1.478       .  S
C96         O101   1.265       .  A
C96          O99   1.266       .  A
C96        C2324   1.474       .  S
Cd97        O104   2.482       .  S
Cd97        O103   2.484       .  S
Cd97        O102   2.453       .  S
Cd97         O98   2.516       .  S
Cd97        O101   2.465       .  S
Cd97         O99   2.483       .  S
C100        O104   1.265       .  A
C100       C2119   1.472       .  S
O105        C108   1.266       .  A
O105       Cd110   2.478       .  S
C106        O115   1.263       .  A
C106        O111   1.265       .  A
C106       C2039   1.469       .  S
O107        C113   1.263       .  A
O107       Cd110   2.472       .  S
C108        O116   1.264       .  A
C108       C2020   1.470       .  S
C109        O114   1.267       .  A
C109        O112   1.265       .  A
C109       C2087   1.470       .  S
Cd110       O117   2.477       .  S
Cd110       O116   2.451       .  S
Cd110       O115   2.446       .  S
Cd110       O111   2.481       .  S
Cd110       O114   2.462       .  S
Cd110       O112   2.457       .  S
C113        O117   1.262       .  A
C113       C2260   1.469       .  S
O118        C121   1.264       .  A
O118       Cd123   2.447       .  S
C119        O128   1.264       .  A
C119        O124   1.265       .  A
C119       C2215   1.468       .  S
O120        C126   1.267       .  A
O120       Cd123   2.474       .  S
C121        O129   1.266       .  A
C121       C2004   1.467       .  S
C122        O127   1.267       .  A
C122        O125   1.262       .  A
C122       C1988   1.473       .  S
Cd123       O130   2.447       .  S
Cd123       O129   2.466       .  S
Cd123       O128   2.450       .  S
Cd123       O124   2.467       .  S
Cd123       O127   2.511       .  S
Cd123       O125   2.434       .  S
C126        O130   1.264       .  A
C126       C2036   1.469       .  S
O131        C134   1.266       .  A
O131       Cd136   2.503       .  S
C132        O141   1.264       .  A
C132        O137   1.267       .  A
C132       C1972   1.472       .  S
O133        C139   1.266       .  A
O133       Cd136   2.450       .  S
C134        O142   1.263       .  A
C134       C1959   1.475       .  S
C135        O140   1.265       .  A
C135        O138   1.260       .  A
C135       C2359   1.466       .  S
Cd136       O143   2.468       .  S
Cd136       O142   2.460       .  S
Cd136       O141   2.458       .  S
Cd136       O137   2.476       .  S
Cd136       O140   2.506       .  S
Cd136       O138   2.428       .  S
C139        O143   1.268       .  A
C139       C2196   1.471       .  S
O144        C147   1.263       .  A
O144       Cd149   2.469       .  S
C145        O154   1.266       .  A
C145        O150   1.266       .  A
C145       C2007   1.468       .  S
O146        C152   1.267       .  A
O146       Cd149   2.492       .  S
C147        O155   1.264       .  A
C147       C2311   1.467       .  S
C148        O153   1.264       .  A
C148        O151   1.263       .  A
C148       C1940   1.475       .  S
Cd149       O156   2.450       .  S
Cd149       O155   2.460       .  S
Cd149       O154   2.456       .  S
Cd149       O150   2.454       .  S
Cd149       O153   2.487       .  S
Cd149       O151   2.484       .  S
C152        O156   1.264       .  A
C152       C1975   1.473       .  S
C157        C158   1.534       .  S
C157        C163   1.536       .  S
C157        C161   1.537       .  S
C157       C1895   1.522       .  S
C158        H165   1.086       .  S
C158        C159   1.369       .  D
C159        C160   1.551       .  S
C159       C1924   1.490       .  S
C160        C164   1.545       .  S
C160        C162   1.546       .  S
C160        H166   1.109   1_554  S
C161        H167   1.086       .  S
C161        C162   1.369       .  D
C162       C2135   1.492   1_554  S
C163        H168   1.084       .  S
C163        C164   1.366       .  D
C164       C1911   1.484       .  S
C169        C170   1.537       .  S
C169        C175   1.531       .  S
C169        C173   1.534       .  S
C169       C1844   1.519       .  S
C170        H177   1.084       .  S
C170        C171   1.370       .  D
C171        C172   1.549       .  S
C171       C1863   1.488       .  S
C172        C176   1.539       .  S
C172        C174   1.545       .  S
C172        H178   1.110   1_554  S
C173        H179   1.086       .  S
C173        C174   1.367       .  D
C174       C2228   1.484   1_554  S
C175        H180   1.087       .  S
C175        C176   1.366       .  D
C176       C1879   1.478   1_455  S
C181        C182   1.529       .  S
C181        C187   1.532       .  S
C181        C185   1.533   1_556  S
C181       C1991   1.518       .  S
C182        H189   1.085       .  S
C182        C183   1.368   1_556  D
C183        C184   1.554       .  S
C183       C1860   1.493       .  S
C184        C188   1.548       .  S
C184        C186   1.547       .  S
C184        H190   1.110       .  S
C185        H191   1.086       .  S
C185        C186   1.368       .  D
C186       C1815   1.486       .  S
C187        H192   1.084       .  S
C187        C188   1.366   1_556  D
C188       C1828   1.487       .  S
C193        C194   1.529   1_565  S
C193        C199   1.534       .  S
C193        C197   1.536       .  S
C193       C1780   1.521       .  S
C194        H201   1.087       .  S
C194        C195   1.366       .  D
C195        C196   1.544   1_545  S
C195       C1876   1.480       .  S
C196        C200   1.549       .  S
C196        C198   1.545       .  S
C196        H202   1.110   1_554  S
C197        H203   1.086       .  S
C197        C198   1.371       .  D
C198       C2343   1.485   1_554  S
C199        H204   1.084       .  S
C199        C200   1.365       .  D
C200       C1796   1.488       .  S
C205        C206   1.533       .  S
C205        C211   1.533   1_545  S
C205        C209   1.535   1_556  S
C205       C2052   1.523       .  S
C206        H213   1.084       .  S
C206        C207   1.365   1_556  D
C207        C208   1.547       .  S
C207       C1831   1.487       .  S
C208        C212   1.548   1_545  S
C208        C210   1.549       .  S
C208        H214   1.109       .  S
C209        H215   1.084       .  S
C209        C210   1.374       .  D
C210       C1764   1.496       .  S
C211        H216   1.085       .  S
C211        C212   1.367   1_556  D
C212       C1908   1.488       .  S
C217        C218   1.530       .  S
C217        C223   1.521       .  S
C217        C221   1.534   1_556  S
C217       C1943   1.519       .  S
C218        H225   1.084       .  S
C218        C219   1.371   1_556  D
C219        C220   1.558       .  S
C219       C1927   1.497       .  S
C220        C224   1.557       .  S
C220        C222   1.552       .  S
C220        H226   1.110       .  S
C221        H227   1.085       .  S
C221        C222   1.371       .  D
C222       C1751   1.492       .  S
C223        H228   1.086       .  S
C223        C224   1.363   1_556  D
C224       C1799   1.493       .  S
O229        C232   1.267       .  A
O229       Cd234   2.489       .  S
C230        O239   1.263       .  A
C230        O235   1.265       .  A
C230       C1767   1.481       .  S
O231        C237   1.265       .  A
O231       Cd234   2.497       .  S
C232        O240   1.263       .  A
C232       C1732   1.474       .  S
C233        O238   1.268       .  A
C233        O236   1.267       .  A
C233       C1716   1.475       .  S
Cd234       O241   2.468       .  S
Cd234       O240   2.471       .  S
Cd234       O239   2.479       .  S
Cd234       O235   2.525       .  S
Cd234       O238   2.468       .  S
Cd234       O236   2.469       .  S
C237        O241   1.262       .  A
C237       C1703   1.473       .  S
O242        C245   1.264       .  A
O242       Cd247   2.454       .  S
C243        O252   1.265       .  A
C243        O248   1.262       .  A
C243       C1668   1.475       .  S
O244        C250   1.265       .  A
O244       Cd247   2.479       .  S
C245        O253   1.266       .  A
C245       C1735   1.476       .  S
C246        O251   1.265       .  A
C246        O249   1.267       .  A
C246       C1687   1.476       .  S
Cd247       O254   2.468       .  S
Cd247       O253   2.507       .  S
Cd247       O252   2.491       .  S
Cd247       O248   2.479       .  S
Cd247       O251   2.467   1_545  S
Cd247       O249   2.494   1_545  S
C250        O254   1.265       .  A
C250       C1652   1.473       .  S
O255        C258   1.266       .  A
O255       Cd260   2.456       .  S
C256        O265   1.263       .  A
C256        O261   1.264       .  A
C256       C1604   1.470   1_455  S
O257        C263   1.266       .  A
O257       Cd260   2.486       .  S
C258        O266   1.267       .  A
C258       C1684   1.473       .  S
C259        O264   1.264       .  A
C259        O262   1.265       .  A
C259       C1620   1.478       .  S
Cd260       O267   2.490       .  S
Cd260       O266   2.477       .  S
Cd260       O265   2.455       .  S
Cd260       O261   2.489       .  S
Cd260       O264   2.494       .  S
Cd260       O262   2.487       .  S
C263        O267   1.263       .  A
C263       C1639   1.476       .  S
O268        C271   1.269       .  A
O268       Cd273   2.518   1_455  S
C269        O278   1.265       .  A
C269        O274   1.268       .  A
C269       C1636   1.478       .  S
O270        C276   1.267       .  A
O270       Cd273   2.485       .  S
C271        O279   1.262   1_455  A
C271       C1892   1.475       .  S
C272        O277   1.266   1_455  A
C272        O275   1.266       .  A
C272       C1588   1.475       .  S
Cd273       O280   2.447       .  S
Cd273       O279   2.430       .  S
Cd273       O278   2.452   1_655  S
Cd273       O274   2.508   1_655  S
Cd273       O277   2.474       .  S
Cd273       O275   2.480   1_655  S
C276        O280   1.265       .  A
C276       C1572   1.472       .  S
O281        C284   1.264       .  A
O281       Cd286   2.447       .  S
C282        O291   1.264       .  A
C282        O287   1.265       .  A
C282       C1540   1.468       .  S
O283        C289   1.269       .  A
O283       Cd286   2.539       .  S
C284        O292   1.268       .  A
C284       C1719   1.477       .  S
C285        O290   1.270       .  A
C285        O288   1.263       .  A
C285       C1783   1.477       .  S
Cd286       O293   2.450       .  S
Cd286       O292   2.511       .  S
Cd286       O291   2.461       .  S
Cd286       O287   2.462       .  S
Cd286       O290   2.514       .  S
Cd286       O288   2.447       .  S
C289        O293   1.262       .  A
C289       C1556   1.482       .  S
O294        C297   1.264       .  A
O294       Cd299   2.484   1_545  S
C295        O304   1.262       .  A
C295        O300   1.266       .  A
C295       C1559   1.481       .  S
O296        C302   1.263       .  A
O296       Cd299   2.481   1_545  S
C297        O305   1.265   1_545  A
C297       C1508   1.481       .  S
C298        O303   1.266       .  A
C298        O301   1.269       .  A
C298       C1524   1.476       .  S
Cd299       O306   2.485   1_565  S
Cd299       O305   2.510       .  S
Cd299       O304   2.491       .  S
Cd299       O300   2.514       .  S
Cd299       O303   2.451       .  S
Cd299       O301   2.497       .  S
C302        O306   1.263       .  A
C302       C1492   1.474       .  S
O307        C310   1.265       .  A
O307       Cd312   2.484       .  S
C308        O317   1.263   1_455  A
C308        O313   1.267       .  A
C308       C1847   1.474       .  S
O309        C315   1.264       .  A
O309       Cd312   2.469   1_655  S
C310        O318   1.263       .  A
C310       C1479   1.471       .  S
C311        O316   1.264   1_455  A
C311        O314   1.269       .  A
C311       C1591   1.475   1_455  S
Cd312       O319   2.461   1_455  S
Cd312       O318   2.466       .  S
Cd312       O317   2.446   1_455  S
Cd312       O313   2.502       .  S
Cd312       O316   2.439   1_455  S
Cd312       O314   2.506       .  S
C315        O319   1.262       .  A
C315       C1543   1.467       .  S
O320        C323   1.264       .  A
O320       Cd325   2.461       .  S
C321        O330   1.267       .  A
C321        O326   1.263       .  A
C321       C1444   1.478       .  S
O322        C328   1.264       .  A
O322       Cd325   2.478       .  S
C323        O331   1.266       .  A
C323       C1476   1.472       .  S
C324        O329   1.264       .  A
C324        O327   1.266       .  A
C324       C1460   1.477       .  S
Cd325       O332   2.480       .  S
Cd325       O331   2.486       .  S
Cd325       O330   2.508       .  S
Cd325       O326   2.469       .  S
Cd325       O329   2.469       .  S
Cd325       O327   2.503       .  S
C328        O332   1.264       .  A
C328       C1495   1.474   1_455  S
O333        C336   1.266       .  A
O333       Cd338   2.458       .  S
C334        O343   1.264       .  A
C334        O339   1.264       .  A
C334       C1700   1.472       .  S
O335        C341   1.268       .  A
O335       Cd338   2.513       .  S
C336        O344   1.266       .  A
C336       C1415   1.475       .  S
C337        O342   1.263       .  A
C337        O340   1.266       .  A
C337       C1812   1.478       .  S
Cd338       O345   2.461       .  S
Cd338       O344   2.491       .  S
Cd338       O343   2.467       .  S
Cd338       O339   2.481       .  S
Cd338       O342   2.482       .  S
Cd338       O340   2.502       .  S
C341        O345   1.263       .  A
C341       C1431   1.479       .  S
O346        C349   1.263       .  A
O346       Cd351   2.510       .  S
C347        O356   1.264       .  A
C347        O352   1.269       .  A
C347       C1428   1.479       .  S
O348        C354   1.267       .  A
O348       Cd351   2.529       .  S
C349        O357   1.262       .  A
C349       C1399   1.480       .  S
C350        O355   1.270       .  A
C350        O353   1.266       .  A
C350       C1463   1.479       .  S
Cd351       O358   2.432       .  S
Cd351       O357   2.497       .  S
Cd351       O356   2.457       .  S
Cd351       O352   2.512       .  S
Cd351       O355   2.498       .  S
Cd351       O353   2.460       .  S
C354        O358   1.260       .  A
C354       C1655   1.474       .  S
O359        C362   1.266       .  A
O359       Cd364   2.524       .  S
C360        O369   1.267       .  A
C360        O365   1.263       .  A
C360       C1364   1.482       .  S
O361        C367   1.264       .  A
O361       Cd364   2.480       .  S
C362        O370   1.261       .  A
C362       C1380   1.479       .  S
C363        O368   1.266       .  A
C363        O366   1.267       .  A
C363       C1527   1.476       .  S
Cd364       O371   2.456       .  S
Cd364       O370   2.470       .  S
Cd364       O369   2.516       .  S
Cd364       O365   2.481       .  S
Cd364       O368   2.466       .  S
Cd364       O366   2.485       .  S
C367        O371   1.264       .  A
C367       C1607   1.470       .  S
O372        C375   1.265       .  A
O372       Cd377   2.452       .  S
C373        O382   1.265       .  A
C373        O378   1.266       .  A
C373       C1575   1.472       .  S
O374        C380   1.269       .  A
O374       Cd377   2.540       .  S
C375        O383   1.268       .  A
C375       C1412   1.476       .  S
C376        O381   1.270       .  A
C376        O379   1.262       .  A
C376       C1383   1.479       .  S
Cd377       O384   2.457       .  S
Cd377       O383   2.506       .  S
Cd377       O382   2.465       .  S
Cd377       O378   2.478       .  S
Cd377       O381   2.525       .  S
Cd377       O379   2.444       .  S
C380        O384   1.264       .  A
C380       C1748   1.485       .  S
C385        C386   1.526       .  S
C385        C391   1.528       .  S
C385        C389   1.536       .  S
C385       C1316   1.519       .  S
C386        H393   1.086       .  S
C386        C387   1.366       .  D
C387        C388   1.548       .  S
C387       C1348   1.484       .  S
C388        C392   1.551       .  S
C388        C390   1.548       .  S
C388        H394   1.109       .  S
C389        H395   1.083       .  S
C389        C390   1.370       .  D
C390       C1671   1.491       .  S
C391        H396   1.086       .  S
C391        C392   1.368       .  D
C392       C1335   1.488       .  S
C397        C398   1.532       .  S
C397        C403   1.531       .  S
C397        C401   1.534       .  S
C397       C1268   1.518       .  S
C398        H405   1.084       .  S
C398        C399   1.360       .  D
C399        C400   1.543       .  S
C399       C1284   1.480       .  S
C400        C404   1.551       .  S
C400        C402   1.549       .  S
C400        H406   1.110       .  S
C401        H407   1.085       .  S
C401        C402   1.371       .  D
C402       C2276   1.487       .  S
C403        H408   1.085       .  S
C403        C404   1.369       .  D
C404       C1300   1.488       .  S
C409        C410   1.534       .  S
C409        C415   1.530       .  S
C409        C413   1.536       .  S
C409       C1220   1.520       .  S
C410        H417   1.086       .  S
C410        C411   1.369       .  D
C411        C412   1.544       .  S
C411       C1236   1.481       .  S
C412        C416   1.545       .  S
C412        C414   1.549       .  S
C412        H418   1.110       .  S
C413        H419   1.084       .  S
C413        C414   1.368       .  D
C414       C1367   1.488       .  S
C415        H420   1.086       .  S
C415        C416   1.366       .  D
C416       C1252   1.483       .  S
C421        C422   1.531       .  S
C421        C427   1.534       .  S
C421        C425   1.538       .  S
C421       C1207   1.526       .  S
C422        H429   1.086       .  S
C422        C423   1.367       .  D
C423        C424   1.543       .  S
C423       C1255   1.485       .  S
C424        C428   1.543       .  S
C424        C426   1.549       .  S
C424        H430   1.109       .  S
C425        H431   1.084       .  S
C425        C426   1.375       .  D
C426       C1396   1.496       .  S
C427        H432   1.085       .  S
C427        C428   1.367       .  D
C428       C1351   1.482       .  S
C433        C434   1.528       .  S
C433        C439   1.531       .  S
C433        C437   1.537       .  S
C433       C1175   1.519       .  S
C434        H441   1.085       .  S
C434        C435   1.367       .  D
C435        C436   1.550       .  S
C435       C1188   1.489       .  S
C436        C440   1.545       .  S
C436        C438   1.548       .  S
C436        H442   1.108       .  S
C437        H443   1.085       .  S
C437        C438   1.373       .  D
C438       C1623   1.494       .  S
C439        H444   1.085       .  S
C439        C440   1.364       .  D
C440       C1239   1.478       .  S
C445        C446   1.537       .  S
C445        C451   1.529       .  S
C445        C449   1.533       .  S
C445       C1124   1.517       .  S
C446        H453   1.083       .  S
C446        C447   1.370       .  D
C447        C448   1.547       .  S
C447       C1143   1.483       .  S
C448        C452   1.544       .  S
C448        C450   1.544       .  S
C448        H454   1.110       .  S
C449        H455   1.085       .  S
C449        C450   1.368       .  D
C450       C1956   1.487       .  S
C451        H456   1.086       .  S
C451        C452   1.364       .  D
C452       C1156   1.482       .  S
C457        C458   1.538       .  S
C457        C463   1.530       .  S
C457        C461   1.539       .  S
C457       C1140   1.524       .  S
C458        H465   1.081       .  S
C458        C459   1.365       .  D
C459        C460   1.541       .  S
C459       C2375   1.487       .  S
C460        C464   1.549       .  S
C460        C462   1.544       .  S
C460        H466   1.109       .  S
C461        H467   1.085       .  S
C461        C462   1.371       .  D
C462       C1108   1.487       .  S
C463        H468   1.083       .  S
C463        C464   1.367       .  D
C464       C1092   1.491       .  S
C469        C470   1.530       .  S
C469        C475   1.540       .  S
C469        C473   1.535       .  S
C469       C1076   1.519       .  S
C470        H477   1.087       .  S
C470        C471   1.364       .  D
C471        C472   1.542       .  S
C471       C1159   1.481       .  S
C472        C476   1.538       .  S
C472        C474   1.546       .  S
C472        H478   1.110       .  S
C473        H479   1.084       .  S
C473        C474   1.372       .  D
C474       C2023   1.488       .  S
C475        H480   1.085       .  S
C475        C476   1.369       .  D
C476       C1287   1.480       .  S
C481        C482   1.532       .  S
C481        C487   1.535       .  S
C481        C485   1.535       .  S
C481       C2167   1.522       .  S
C482        H489   1.086       .  S
C482        C483   1.367       .  D
C483        C484   1.546       .  S
C483       C1063   1.489       .  S
C484        C488   1.549       .  S
C484        C486   1.549       .  S
C484        H490   1.110       .  S
C485        H491   1.085       .  S
C485        C486   1.371       .  D
C486       C1047   1.491       .  S
C487        H492   1.084       .  S
C487        C488   1.369       .  D
C488       C1303   1.488       .  S
C493        C494   1.532       .  S
C493        C499   1.524       .  S
C493        C497   1.535       .  S
C493       C2071   1.521       .  S
C494        H501   1.083       .  S
C494        C495   1.370       .  D
C495        C496   1.552       .  S
C495       C1111   1.492       .  S
C496        C500   1.553       .  S
C496        C498   1.551       .  S
C496        H502   1.110       .  S
C497        H503   1.085       .  S
C497        C498   1.373       .  D
C498       C1028   1.494       .  S
C499        H504   1.086       .  S
C499        C500   1.364       .  D
C500       C1060   1.493       .  S
C505        C506   1.532       .  S
C505        C511   1.535       .  S
C505        C509   1.538       .  S
C505       C1511   1.525       .  S
C506        H513   1.086       .  S
C506        C507   1.366       .  D
C507        C508   1.543       .  S
C507       C1012   1.485       .  S
C508        C512   1.550       .  S
C508        C510   1.546       .  S
C508        H514   1.110       .  S
C509        H515   1.083       .  S
C509        C510   1.368       .  D
C510        C996   1.482       .  S
C511        H516   1.085       .  S
C511        C512   1.371       .  D
C512       C1332   1.493       .  S
C517        C518   1.532       .  S
C517        C523   1.532       .  S
C517        C521   1.536       .  S
C517       C1447   1.522       .  S
C518        H525   1.085       .  S
C518        C519   1.372       .  D
C519        C520   1.552       .  S
C519       C1191   1.491       .  S
C520        C524   1.543       .  S
C520        C522   1.545       .  S
C520        H526   1.110       .  S
C521        H527   1.084   1_655  S
C521        C522   1.366       .  D
C522        C983   1.483       .  S
C523        H528   1.086       .  S
C523        C524   1.366       .  D
C524       C1015   1.483       .  S
O529        C532   1.263       .  A
O529       Cd534   2.473       .  S
C530        O539   1.268       .  A
C530        O535   1.265       .  A
C530        C951   1.477       .  S
O531        C537   1.268       .  A
O531       Cd534   2.508       .  S
C532        O540   1.263       .  A
C532        C932   1.469       .  S
C533        O538   1.263       .  A
C533        O536   1.265       .  A
C533        C964   1.478       .  S
Cd534       O541   2.460       .  S
Cd534       O540   2.467       .  S
Cd534       O539   2.499       .  S
Cd534       O535   2.453       .  S
Cd534       O538   2.478       .  S
Cd534       O536   2.507       .  S
C537        O541   1.264       .  A
C537       C1079   1.477       .  S
O542        C545   1.267       .  A
O542       Cd547   2.476       .  S
C543        O552   1.266       .  A
C543        O548   1.265       .  A
C543        C916   1.474       .  S
O544        C550   1.269       .  A
O544       Cd547   2.543       .  S
C545        O553   1.264       .  A
C545        C900   1.466       .  S
C546        O551   1.269       .  A
C546        O549   1.264       .  A
C546        C967   1.479       .  S
Cd547       O554   2.449       .  S
Cd547       O553   2.427       .  S
Cd547       O552   2.492       .  S
Cd547       O548   2.456       .  S
Cd547       O551   2.497       .  S
Cd547       O549   2.470       .  S
C550        O554   1.262       .  A
C550       C1204   1.482       .  S
O555        C558   1.269       .  A
O555       Cd560   2.518   1_455  S
C556        O565   1.263   1_455  A
C556        O561   1.269       .  A
C556        C884   1.475       .  S
O557        C563   1.267       .  A
O557       Cd560   2.491       .  S
C558        O566   1.264   1_455  A
C558       C1044   1.480       .  S
C559        O564   1.267       .  A
C559        O562   1.268       .  A
C559        C868   1.477       .  S
Cd560       O567   2.442   1_655  S
Cd560       O566   2.457       .  S
Cd560       O565   2.447       .  S
Cd560       O561   2.505   1_655  S
Cd560       O564   2.467       .  S
Cd560       O562   2.483       .  S
C563        O567   1.262   1_655  A
C563        C855   1.469       .  S
O568        C571   1.265       .  A
O568       Cd573   2.462       .  S
C569        O578   1.267       .  A
C569        O574   1.263       .  A
C569        C836   1.470       .  S
O570        C576   1.268       .  A
O570       Cd573   2.514       .  S
C571        O579   1.265       .  A
C571        C823   1.467       .  S
C572        O577   1.264       .  A
C572        O575   1.267       .  A
C572        C887   1.473       .  S
Cd573       O580   2.438       .  S
Cd573       O579   2.452       .  S
Cd573       O578   2.496       .  S
Cd573       O574   2.436       .  S
Cd573       O577   2.453       .  S
Cd573       O575   2.487       .  S
C576        O580   1.261       .  A
C576       C1172   1.474       .  S
O581        C584   1.265       .  A
O581       Cd586   2.424       .  S
C582        O591   1.263       .  A
C582        O587   1.262       .  A
C582        C788   1.471       .  S
O583        C589   1.265   1_545  A
O583       Cd586   2.489   1_545  S
C584        O592   1.268       .  A
C584        C839   1.470       .  S
C585        O590   1.266       .  A
C585        O588   1.263       .  A
C585        C807   1.474       .  S
Cd586       O593   2.485       .  S
Cd586       O592   2.485       .  S
Cd586       O591   2.472       .  S
Cd586       O587   2.483       .  S
Cd586       O590   2.492       .  S
Cd586       O588   2.471       .  S
C589        O593   1.264       .  A
C589       C1319   1.476   1_565  S
O594        C597   1.269       .  A
O594       Cd599   2.517       .  S
C595        O604   1.264       .  A
C595        O600   1.262       .  A
C595       C1031   1.483       .  S
O596        C602   1.268       .  A
O596       Cd599   2.499       .  S
C597        O605   1.262       .  A
C597        C804   1.475       .  S
C598        O603   1.269       .  A
C598        O601   1.269       .  A
C598        C948   1.477       .  S
Cd599       O606   2.411       .  S
Cd599       O605   2.435       .  S
Cd599       O604   2.511       .  S
Cd599       O600   2.513       .  S
Cd599       O603   2.472       .  S
Cd599       O601   2.468       .  S
C602        O606   1.261       .  A
C602        C772   1.466       .  S
O607        C610   1.267       .  A
O607       Cd612   2.409   1_655  S
C608        O617   1.264   1_655  A
C608        O613   1.265       .  A
C608        C852   1.468       .  S
O609        C615   1.270       .  A
O609       Cd612   2.487       .  S
C610        O618   1.267       .  A
C610        C740   1.463       .  S
C611        O616   1.268       .  A
C611        O614   1.262   1_455  A
C611        C756   1.472       .  S
Cd612       O619   2.441       .  S
Cd612       O618   2.459   1_455  S
Cd612       O617   2.452       .  S
Cd612       O613   2.463   1_455  S
Cd612       O616   2.496       .  S
Cd612       O614   2.449   1_455  S
C615        O619   1.262       .  A
C615       C1271   1.471       .  S
O620        C623   1.269       .  A
O620       Cd625   2.506       .  S
C621        O630   1.262       .  A
C621        O626   1.268       .  A
C621        C980   1.476       .  S
O622        C628   1.264       .  A
O622       Cd625   2.462       .  S
C623        O631   1.263       .  A
C623        C759   1.473       .  S
C624        O629   1.263       .  A
C624        O627   1.268       .  A
C624        C919   1.471       .  S
Cd625       O632   2.459       .  S
Cd625       O631   2.423       .  S
Cd625       O630   2.437       .  S
Cd625       O626   2.518       .  S
Cd625       O629   2.427       .  S
Cd625       O627   2.501       .  S
C628        O632   1.265       .  A
C628        C820   1.467       .  S
O633        C636   1.265       .  A
O633       Cd638   2.467       .  S
C634        O643   1.263       .  A
C634        O639   1.262       .  A
C634       C1223   1.473       .  S
O635        C641   1.261       .  A
O635       Cd638   2.474       .  S
C636        O644   1.265       .  A
C636        C708   1.470       .  S
C637        O642   1.265       .  A
C637        O640   1.269       .  A
C637        C724   1.471       .  S
Cd638       O645   2.475       .  S
Cd638       O644   2.470       .  S
Cd638       O643   2.489       .  S
Cd638       O639   2.478       .  S
Cd638       O642   2.442       .  S
Cd638       O640   2.486       .  S
C641        O645   1.262       .  A
C641        C903   1.467       .  S
O646        C649   1.266       .  A
O646       Cd651   2.490       .  S
C647        O656   1.265       .  A
C647        O652   1.267       .  A
C647       C1127   1.473       .  S
O648        C654   1.265       .  A
O648       Cd651   2.487       .  S
C649        O657   1.262       .  A
C649        C711   1.471       .  S
C650        O655   1.265       .  A
C650        O653   1.268       .  A
C650        C871   1.474       .  S
Cd651       O658   2.449       .  S
Cd651       O657   2.455       .  S
Cd651       O656   2.432       .  S
Cd651       O652   2.498       .  S
Cd651       O655   2.447       .  S
Cd651       O653   2.488       .  S
C654        O658   1.262       .  A
C654        C935   1.468       .  S
O659        C662   1.269   1_545  A
O659       Cd664   2.511   1_545  S
C660        O669   1.265       .  A
C660        O665   1.270       .  A
C660        C695   1.473       .  S
O661        C667   1.268       .  A
O661       Cd664   2.487       .  S
C662        O670   1.264       .  A
C662        C999   1.476   1_565  S
C663        O668   1.267       .  A
C663        O666   1.267       .  A
C663        C727   1.472       .  S
Cd664       O671   2.425       .  S
Cd664       O670   2.430       .  S
Cd664       O669   2.443       .  S
Cd664       O665   2.490       .  S
Cd664       O668   2.452       .  S
Cd664       O666   2.471       .  S
C667        O671   1.263       .  A
C667        C791   1.468       .  S
O672        C675   1.262       .  A
O672       Cd677   2.403       .  S
C673        O682   1.267       .  A
C673        O678   1.262       .  A
C673        C775   1.464       .  S
O674        C680   1.267       .  A
O674       Cd677   2.502       .  S
C675        O683   1.267       .  A
C675        C743   1.462       .  S
C676        O681   1.261       .  A
C676        O679   1.267       .  A
C676       C1095   1.471   1_545  S
Cd677       O684   2.440       .  S
Cd677       O683   2.482       .  S
Cd677       O682   2.463       .  S
Cd677       O678   2.436       .  S
Cd677       O681   2.441       .  S
Cd677       O679   2.498       .  S
C680        O684   1.262       .  A
C680        C692   1.472       .  S
C685        S691   1.712       .  A
C685        C690   1.387   1_565  A
C685        C686   1.403       .  A
C686        C687   1.405       .  A
C686        H697   1.083       .  S
C687        C696   1.371       .  A
C687        C688   1.387   1_565  A
C688        S694   1.710       .  A
C688        C689   1.401       .  A
C689        C690   1.403       .  A
C689        H698   1.083       .  S
C690        C693   1.368       .  A
S691        C692   1.723   1_565  A
C692        C693   1.387       .  A
C693        H699   1.083       .  S
S694        C695   1.722   1_545  A
C695        C696   1.389       .  A
C696        H700   1.083       .  S
C701        S707   1.708       .  A
C701        C706   1.387       .  A
C701        C702   1.402       .  A
C702        C703   1.402       .  A
C702        H713   1.083       .  S
C703        C712   1.371       .  A
C703        C704   1.387       .  A
C704        S710   1.706       .  A
C704        C705   1.401       .  A
C705        C706   1.402       .  A
C705        H714   1.083       .  S
C706        C709   1.370       .  A
S707        C708   1.722       .  A
C708        C709   1.386       .  A
C709        H715   1.083       .  S
S710        C711   1.723       .  A
C711        C712   1.386       .  A
C712        H716   1.083       .  S
C717        S723   1.705       .  A
C717        C722   1.387       .  A
C717        C718   1.400       .  A
C718        C719   1.401       .  A
C718        H729   1.083       .  S
C719        C728   1.369       .  A
C719        C720   1.387       .  A
C720        S726   1.710       .  A
C720        C721   1.404       .  A
C721        C722   1.404       .  A
C721        H730   1.083       .  S
C722        C725   1.373       .  A
S723        C724   1.723       .  A
C724        C725   1.387       .  A
C725        H731   1.083       .  S
S726        C727   1.724       .  A
C727        C728   1.385       .  A
C728        H732   1.083       .  S
C733        S739   1.709       .  A
C733        C738   1.387       .  A
C733        C734   1.403       .  A
C734        C735   1.404       .  A
C734        H745   1.083       .  S
C735        C744   1.371       .  A
C735        C736   1.388       .  A
C736        S742   1.697       .  A
C736        C737   1.394       .  A
C737        C738   1.395       .  A
C737        H746   1.083       .  S
C738        C741   1.361       .  A
S739        C740   1.723       .  A
C740        C741   1.381       .  A
C741        H747   1.083       .  S
S742        C743   1.719       .  A
C743        C744   1.386       .  A
C744        H748   1.083       .  S
C749        S755   1.708       .  A
C749        C754   1.387       .  A
C749        C750   1.399       .  A
C750        C751   1.401       .  A
C750        H761   1.083       .  S
C751        C760   1.366       .  A
C751        C752   1.386       .  A
C752        S758   1.714       .  A
C752        C753   1.404       .  A
C753        C754   1.406       .  A
C753        H762   1.083   1_455  S
C754        C757   1.371       .  A
S755        C756   1.720       .  A
C756        C757   1.389       .  A
C757        H763   1.083   1_455  S
S758        C759   1.724       .  A
C759        C760   1.386       .  A
C760        H764   1.083       .  S
C765        S771   1.699       .  A
C765        C770   1.388       .  A
C765        C766   1.398       .  A
C766        C767   1.398       .  A
C766        H777   1.083       .  S
C767        C776   1.367       .  A
C767        C768   1.388       .  A
C768        S774   1.705       .  A
C768        C769   1.402       .  A
C769        C770   1.402       .  A
C769        H778   1.083       .  S
C770        C773   1.372       .  A
S771        C772   1.722       .  A
C772        C773   1.385       .  A
C773        H779   1.083       .  S
S774        C775   1.723       .  A
C775        C776   1.382       .  A
C776        H780   1.083       .  S
C781        S787   1.709       .  A
C781        C786   1.387       .  A
C781        C782   1.404       .  A
C782        C783   1.404       .  A
C782        H793   1.083       .  S
C783        C792   1.373       .  A
C783        C784   1.388       .  A
C784        S790   1.702       .  A
C784        C785   1.398       .  A
C785        C786   1.399       .  A
C785        H794   1.083   1_565  S
C786        C789   1.368       .  A
S787        C788   1.725       .  A
C788        C789   1.384       .  A
C789        H795   1.083       .  S
S790        C791   1.721       .  A
C791        C792   1.386       .  A
C792        H796   1.083       .  S
C797        S803   1.714       .  A
C797        C802   1.386   1_565  A
C797        C798   1.404       .  A
C798        C799   1.406       .  A
C798        H809   1.083       .  S
C799        C808   1.373       .  A
C799        C800   1.387   1_565  A
C800        S806   1.709       .  A
C800        C801   1.401       .  A
C801        C802   1.403       .  A
C801        H810   1.083       .  S
C802        C805   1.369       .  A
S803        C804   1.724   1_565  A
C804        C805   1.388       .  A
C805        H811   1.083       .  S
S806        C807   1.722   1_545  A
C807        C808   1.389       .  A
C808        H812   1.083       .  S
C813        S819   1.707       .  A
C813        C818   1.387       .  A
C813        C814   1.401       .  A
C814        C815   1.402       .  A
C814        H825   1.083       .  S
C815        C824   1.369       .  A
C815        C816   1.387       .  A
C816        S822   1.704       .  A
C816        C817   1.399       .  A
C817        C818   1.400       .  A
C817        H826   1.083       .  S
C818        C821   1.368       .  A
S819        C820   1.723       .  A
C820        C821   1.384       .  A
C821        H827   1.083       .  S
S822        C823   1.721       .  A
C823        C824   1.386       .  A
C824        H828   1.083       .  S
C829        S835   1.701       .  A
C829        C834   1.387       .  A
C829        C830   1.396       .  A
C830        C831   1.397       .  A
C830        H841   1.083       .  S
C831        C840   1.364       .  A
C831        C832   1.387       .  A
C832        S838   1.713       .  A
C832        C833   1.406       .  A
C833        C834   1.407       .  A
C833        H842   1.083       .  S
C834        C837   1.374       .  A
S835        C836   1.720       .  A
C836        C837   1.389       .  A
C837        H843   1.083       .  S
S838        C839   1.725       .  A
C839        C840   1.383       .  A
C840        H844   1.083       .  S
C845        S851   1.707       .  A
C845        C850   1.387   1_655  A
C845        C846   1.402       .  A
C846        C847   1.402       .  A
C846        H857   1.083       .  S
C847        C856   1.372       .  A
C847        C848   1.387   1_655  A
C848        S854   1.704       .  A
C848        C849   1.400       .  A
C849        C850   1.401       .  A
C849        H858   1.083       .  S
C850        C853   1.368       .  A
S851        C852   1.722       .  A
C852        C853   1.385   1_655  A
C853        H859   1.083       .  S
S854        C855   1.723   1_455  A
C855        C856   1.386       .  A
C856        H860   1.083       .  S
C861        S867   1.708       .  A
C861        C866   1.387       .  A
C861        C862   1.401       .  A
C862        C863   1.402       .  A
C862        H873   1.083       .  S
C863        C872   1.370       .  A
C863        C864   1.387       .  A
C864        S870   1.712       .  A
C864        C865   1.404       .  A
C865        C866   1.405       .  A
C865        H874   1.083       .  S
C866        C869   1.374       .  A
S867        C868   1.724       .  A
C868        C869   1.389       .  A
C869        H875   1.083       .  S
S870        C871   1.724       .  A
C871        C872   1.386       .  A
C872        H876   1.083       .  S
C877        S883   1.712       .  A
C877        C882   1.387       .  A
C877        C878   1.403       .  A
C878        C879   1.404       .  A
C878        H889   1.083       .  S
C879        C888   1.371       .  A
C879        C880   1.387       .  A
C880        S886   1.710       .  A
C880        C881   1.402       .  A
C881        C882   1.404       .  A
C881        H890   1.083   1_455  S
C882        C885   1.370       .  A
S883        C884   1.723       .  A
C884        C885   1.388       .  A
C885        H891   1.083   1_455  S
S886        C887   1.722       .  A
C887        C888   1.388       .  A
C888        H892   1.083       .  S
C893        S899   1.702       .  A
C893        C898   1.388       .  A
C893        C894   1.399       .  A
C894        C895   1.400       .  A
C894        H905   1.083       .  S
C895        C904   1.368       .  A
C895        C896   1.387       .  A
C896        S902   1.707       .  A
C896        C897   1.402       .  A
C897        C898   1.402       .  A
C897        H906   1.083       .  S
C898        C901   1.371       .  A
S899        C900   1.721       .  A
C900        C901   1.386       .  A
C901        H907   1.083       .  S
S902        C903   1.722       .  A
C903        C904   1.385       .  A
C904        H908   1.083       .  S
C909        S915   1.712       .  A
C909        C914   1.387       .  A
C909        C910   1.406       .  A
C910        C911   1.406       .  A
C910        H921   1.083       .  S
C911        C920   1.375       .  A
C911        C912   1.387       .  A
C912        S918   1.702       .  A
C912        C913   1.398       .  A
C913        C914   1.399       .  A
C913        H922   1.083       .  S
C914        C917   1.368       .  A
S915        C916   1.725       .  A
C916        C917   1.385       .  A
C917        H923   1.083       .  S
S918        C919   1.721       .  A
C919        C920   1.388       .  A
C920        H924   1.083       .  S
C925        S931   1.708       .  A
C925        C930   1.387       .  A
C925        C926   1.402       .  A
C926        C927   1.403       .  A
C926        H937   1.083       .  S
C927        C936   1.372       .  A
C927        C928   1.387       .  A
C928        S934   1.703       .  A
C928        C929   1.399       .  A
C929        C930   1.400       .  A
C929        H938   1.083       .  S
C930        C933   1.369       .  A
S931        C932   1.723       .  A
C932        C933   1.385       .  A
C933        H939   1.083       .  S
S934        C935   1.721       .  A
C935        C936   1.386       .  A
C936        H940   1.083       .  S
C941        S947   1.709       .  A
C941        C946   1.387       .  A
C941        C942   1.402       .  A
C942        C943   1.403       .  A
C942        H953   1.083       .  S
C943        C952   1.371       .  A
C943        C944   1.386       .  A
C944        S950   1.713       .  A
C944        C945   1.405       .  A
C945        C946   1.406       .  A
C945        H954   1.083       .  S
C946        C949   1.374       .  A
S947        C948   1.723       .  A
C948        C949   1.389       .  A
C949        H955   1.083       .  S
S950        C951   1.724       .  A
C951        C952   1.388       .  A
C952        H956   1.083       .  S
C957        S963   1.713       .  A
C957        C962   1.386       .  A
C957        C958   1.406       .  A
C958        C959   1.407       .  A
C958        H969   1.083       .  S
C959        C968   1.375       .  A
C959        C960   1.386       .  A
C960        S966   1.711       .  A
C960        C961   1.403       .  A
C961        C962   1.404       .  A
C961        H970   1.083       .  S
C962        C965   1.373       .  A
S963        C964   1.725       .  A
C964        C965   1.388       .  A
C965        H971   1.083       .  S
S966        C967   1.723       .  A
C967        C968   1.391       .  A
C968        H972   1.083       .  S
C973        S979   1.716       .  A
C973        C978   1.386       .  A
C973        C974   1.408   1_455  A
C974        C975   1.409       .  A
C974        H985   1.083       .  S
C975        C984   1.379       .  A
C975        C976   1.387   1_655  A
C976        S982   1.702       .  A
C976        C977   1.398       .  A
C977        C978   1.399       .  A
C977        H986   1.083       .  S
C978        C981   1.367       .  A
S979        C980   1.726       .  A
C980        C981   1.386       .  A
C981        H987   1.083       .  S
S982        C983   1.723   1_455  A
C983        C984   1.390       .  A
C984        H988   1.083       .  S
C989        S995   1.703       .  A
C989        C994   1.387       .  A
C989        C990   1.399       .  A
C990        C991   1.400       .  A
C990       H1001   1.083   1_545  S
C991       C1000   1.368   1_545  A
C991        C992   1.386       .  A
C992        S998   1.716       .  A
C992        C993   1.408       .  A
C993        C994   1.409       .  A
C993       H1002   1.083       .  S
C994        C997   1.379       .  A
S995        C996   1.723       .  A
C996        C997   1.390       .  A
C997       H1003   1.083       .  S
S998        C999   1.726       .  A
C999       C1000   1.386   1_545  A
C1000      H1004   1.083       .  S
C1005      S1011   1.721       .  A
C1005      C1010   1.386       .  A
C1005      C1006   1.412       .  A
C1006      C1007   1.413       .  A
C1006      H1017   1.083       .  S
C1007      C1016   1.383       .  A
C1007      C1008   1.387       .  A
C1008      S1014   1.701       .  A
C1008      C1009   1.397       .  A
C1009      C1010   1.398       .  A
C1009      H1018   1.083       .  S
C1010      C1013   1.367       .  A
S1011      C1012   1.728       .  A
C1012      C1013   1.385       .  A
C1013      H1019   1.083       .  S
S1014      C1015   1.721       .  A
C1015      C1016   1.392       .  A
C1016      H1020   1.083       .  S
C1021      S1027   1.717       .  A
C1021      C1026   1.385       .  A
C1021      C1022   1.409       .  A
C1022      C1023   1.410       .  A
C1022      H1033   1.083       .  S
C1023      C1032   1.379       .  A
C1023      C1024   1.386       .  A
C1024      S1030   1.711   1_565  A
C1024      C1025   1.403       .  A
C1025      C1026   1.404       .  A
C1025      H1034   1.083       .  S
C1026      C1029   1.373       .  A
S1027      C1028   1.728       .  A
C1028      C1029   1.391       .  A
C1029      H1035   1.082       .  S
S1030      C1031   1.723       .  A
C1031      C1032   1.393   1_545  A
C1032      H1036   1.083       .  S
C1037      S1043   1.707       .  A
C1037      C1042   1.387       .  A
C1037      C1038   1.402       .  A
C1038      C1039   1.403       .  A
C1038      H1049   1.083       .  S
C1039      C1048   1.372       .  A
C1039      C1040   1.385       .  A
C1040      S1046   1.715       .  A
C1040      C1041   1.408       .  A
C1041      C1042   1.409       .  A
C1041      H1050   1.083       .  S
C1042      C1045   1.379       .  A
S1043      C1044   1.724       .  A
C1044      C1045   1.391       .  A
C1045      H1051   1.083       .  S
S1046      C1047   1.727       .  A
C1047      C1048   1.390       .  A
C1048      H1052   1.082       .  S
C1053      S1059   1.725       .  A
C1053      C1058   1.384       .  A
C1053      C1054   1.413       .  A
C1054      C1055   1.414       .  A
C1054      H1065   1.082       .  S
C1055      C1064   1.383       .  A
C1055      C1056   1.387       .  A
C1056      S1062   1.703       .  A
C1056      C1057   1.398       .  A
C1057      C1058   1.400       .  A
C1057      H1066   1.083       .  S
C1058      C1061   1.366       .  A
S1059      C1060   1.728       .  A
C1060      C1061   1.389       .  A
C1061      H1067   1.083       .  S
S1062      C1063   1.724       .  A
C1063      C1064   1.393       .  A
C1064      H1068   1.083       .  S
C1069      S1075   1.711       .  A
C1069      C1074   1.385       .  A
C1069      C1070   1.406       .  A
C1070      C1071   1.406       .  A
C1070      H1081   1.083       .  S
C1071      C1080   1.376       .  A
C1071      C1072   1.387       .  A
C1072      S1078   1.706       .  A
C1072      C1073   1.402       .  A
C1073      C1074   1.402       .  A
C1073      H1082   1.083       .  S
C1074      C1077   1.371       .  A
S1075      C1076   1.729       .  A
C1076      C1077   1.389       .  A
C1077      H1083   1.083       .  S
S1078      C1079   1.724       .  A
C1079      C1080   1.389       .  A
C1080      H1084   1.083       .  S
C1085      S1091   1.711       .  A
C1085      C1090   1.385       .  A
C1085      C1086   1.403       .  A
C1086      C1087   1.405       .  A
C1086      H1097   1.083       .  S
C1087      C1096   1.369   1_565  A
C1087      C1088   1.387       .  A
C1088      S1094   1.711       .  A
C1088      C1089   1.401       .  A
C1089      C1090   1.404       .  A
C1089      H1098   1.083       .  S
C1090      C1093   1.368       .  A
S1091      C1092   1.726       .  A
C1092      C1093   1.393       .  A
C1093      H1099   1.081       .  S
S1094      C1095   1.721       .  A
C1095      C1096   1.388   1_565  A
C1096      H1100   1.083       .  S
C1101      S1107   1.706       .  A
C1101      C1106   1.386       .  A
C1101      C1102   1.400       .  A
C1102      C1103   1.402       .  A
C1102      H1113   1.083       .  S
C1103      C1112   1.368       .  A
C1103      C1104   1.385       .  A
C1104      S1110   1.717       .  A
C1104      C1105   1.408       .  A
C1105      C1106   1.409       .  A
C1105      H1114   1.083       .  S
C1106      C1109   1.377       .  A
S1107      C1108   1.723       .  A
C1108      C1109   1.392       .  A
C1109      H1115   1.082       .  S
S1110      C1111   1.727       .  A
C1111      C1112   1.391       .  A
C1112      H1116   1.082       .  S
C1117      S1123   1.700       .  A
C1117      C1122   1.385       .  A
C1117      C1118   1.397       .  A
C1118      C1119   1.399       .  A
C1118      H1129   1.083       .  S
C1119      C1128   1.366       .  A
C1119      C1120   1.386       .  A
C1120      S1126   1.714       .  A
C1120      C1121   1.406       .  A
C1121      C1122   1.407       .  A
C1121      H1130   1.083       .  S
C1122      C1125   1.375       .  A
S1123      C1124   1.725       .  A
C1124      C1125   1.394       .  A
C1125      H1131   1.080       .  S
S1126      C1127   1.726       .  A
C1127      C1128   1.384       .  A
C1128      H1132   1.083       .  S
C1133      S1139   1.709       .  A
C1133      C1138   1.384       .  A
C1133      C1134   1.404       .  A
C1134      C1135   1.405       .  A
C1134      H1145   1.083       .  S
C1135      C1144   1.371       .  A
C1135      C1136   1.386       .  A
C1136      S1142   1.708       .  A
C1136      C1137   1.401       .  A
C1137      C1138   1.403       .  A
C1137      H1146   1.083       .  S
C1138      C1141   1.369       .  A
S1139      C1140   1.730       .  A
C1140      C1141   1.393       .  A
C1141      H1147   1.079       .  S
S1142      C1143   1.722       .  A
C1143      C1144   1.391       .  A
C1144      H1148   1.083       .  S
C1149      S1155   1.701       .  A
C1149      C1154   1.387       .  A
C1149      C1150   1.399       .  A
C1150      C1151   1.399       .  A
C1150      H1161   1.083       .  S
C1151      C1160   1.368       .  A
C1151      C1152   1.386       .  A
C1152      S1158   1.716       .  A
C1152      C1153   1.409       .  A
C1153      C1154   1.409       .  A
C1153      H1162   1.083       .  S
C1154      C1157   1.380       .  A
S1155      C1156   1.723       .  A
C1156      C1157   1.390       .  A
C1157      H1163   1.083       .  S
S1158      C1159   1.725       .  A
C1159      C1160   1.386       .  A
C1160      H1164   1.083       .  S
C1165      S1171   1.703       .  A
C1165      C1170   1.387       .  A
C1165      C1166   1.401       .  A
C1166      C1167   1.401       .  A
C1166      H1177   1.083       .  S
C1167      C1176   1.370   1_455  A
C1167      C1168   1.385   1_455  A
C1168      S1174   1.708       .  A
C1168      C1169   1.405       .  A
C1169      C1170   1.405   1_655  A
C1169      H1178   1.083       .  S
C1170      C1173   1.376       .  A
S1171      C1172   1.723       .  A
C1172      C1173   1.388       .  A
C1173      H1179   1.083       .  S
S1174      C1175   1.730       .  A
C1175      C1176   1.388       .  A
C1176      H1180   1.083   1_655  S
C1181      S1187   1.715       .  A
C1181      C1186   1.385       .  A
C1181      C1182   1.405       .  A
C1182      C1183   1.407       .  A
C1182      H1193   1.083       .  S
C1183      C1192   1.373       .  A
C1183      C1184   1.385       .  A
C1184      S1190   1.711       .  A
C1184      C1185   1.402       .  A
C1185      C1186   1.404       .  A
C1185      H1194   1.083       .  S
C1186      C1189   1.370       .  A
S1187      C1188   1.725       .  A
C1188      C1189   1.391       .  A
C1189      H1195   1.082       .  S
S1190      C1191   1.724       .  A
C1191      C1192   1.394       .  A
C1192      H1196   1.082       .  S
C1197      S1203   1.705       .  A
C1197      C1202   1.387       .  A
C1197      C1198   1.403       .  A
C1198      C1199   1.402       .  A
C1198      H1209   1.083       .  S
C1199      C1208   1.375       .  A
C1199      C1200   1.385       .  A
C1200      S1206   1.711       .  A
C1200      C1201   1.409       .  A
C1201      C1202   1.408       .  A
C1201      H1210   1.083       .  S
C1202      C1205   1.381       .  A
S1203      C1204   1.725       .  A
C1204      C1205   1.391       .  A
C1205      H1211   1.083       .  S
S1206      C1207   1.733       .  A
C1207      C1208   1.390       .  A
C1208      H1212   1.083       .  S
C1213      S1219   1.707       .  A
C1213      C1218   1.385       .  A
C1213      C1214   1.403       .  A
C1214      C1215   1.403       .  A
C1214      H1225   1.083       .  S
C1215      C1224   1.373       .  A
C1215      C1216   1.387       .  A
C1216      S1222   1.708       .  A
C1216      C1217   1.403       .  A
C1217      C1218   1.404       .  A
C1217      H1226   1.083       .  S
C1218      C1221   1.373       .  A
S1219      C1220   1.729       .  A
C1220      C1221   1.391       .  A
C1221      H1227   1.083       .  S
S1222      C1223   1.723       .  A
C1223      C1224   1.387       .  A
C1224      H1228   1.083       .  S
C1229      S1235   1.716       .  A
C1229      C1234   1.386       .  A
C1229      C1230   1.409       .  A
C1230      C1231   1.409       .  A
C1230      H1241   1.083       .  S
C1231      C1240   1.381       .  A
C1231      C1232   1.388       .  A
C1232      S1238   1.700       .  A
C1232      C1233   1.398       .  A
C1233      C1234   1.398       .  A
C1233      H1242   1.083       .  S
C1234      C1237   1.369       .  A
S1235      C1236   1.726       .  A
C1236      C1237   1.385       .  A
C1237      H1243   1.083       .  S
S1238      C1239   1.721       .  A
C1239      C1240   1.389       .  A
C1240      H1244   1.083       .  S
C1245      S1251   1.701       .  A
C1245      C1250   1.387       .  A
C1245      C1246   1.398       .  A
C1246      C1247   1.399       .  A
C1246      H1257   1.083       .  S
C1247      C1256   1.368       .  A
C1247      C1248   1.386       .  A
C1248      S1254   1.716       .  A
C1248      C1249   1.409       .  A
C1249      C1250   1.409       .  A
C1249      H1258   1.083       .  S
C1250      C1253   1.380       .  A
S1251      C1252   1.723       .  A
C1252      C1253   1.390       .  A
C1253      H1259   1.083       .  S
S1254      C1255   1.726       .  A
C1255      C1256   1.387       .  A
C1256      H1260   1.083       .  S
C1261      S1267   1.697       .  A
C1261      C1266   1.386       .  A
C1261      C1262   1.398       .  A
C1262      C1263   1.398       .  A
C1262      H1273   1.083       .  S
C1263      C1272   1.370       .  A
C1263      C1264   1.387       .  A
C1264      S1270   1.707       .  A
C1264      C1265   1.405       .  A
C1265      C1266   1.404       .  A
C1265      H1274   1.083       .  S
C1266      C1269   1.375       .  A
S1267      C1268   1.728       .  A
C1268      C1269   1.391       .  A
C1269      H1275   1.083       .  S
S1270      C1271   1.726       .  A
C1271      C1272   1.383       .  A
C1272      H1276   1.083       .  S
C1277      S1283   1.699       .  A
C1277      C1282   1.387       .  A
C1277      C1278   1.399       .  A
C1278      C1279   1.399       .  A
C1278      H1289   1.083       .  S
C1279      C1288   1.371       .  A
C1279      C1280   1.387       .  A
C1280      S1286   1.713       .  A
C1280      C1281   1.409       .  A
C1281      C1282   1.408       .  A
C1281      H1290   1.083       .  S
C1282      C1285   1.381       .  A
S1283      C1284   1.724       .  A
C1284      C1285   1.389       .  A
C1285      H1291   1.083       .  S
S1286      C1287   1.725       .  A
C1287      C1288   1.384       .  A
C1288      H1292   1.083       .  S
C1293      S1299   1.714       .  A
C1293      C1298   1.385       .  A
C1293      C1294   1.404       .  A
C1294      C1295   1.406       .  A
C1294      H1305   1.083       .  S
C1295      C1304   1.372       .  A
C1295      C1296   1.386       .  A
C1296      S1302   1.712       .  A
C1296      C1297   1.403       .  A
C1297      C1298   1.405       .  A
C1297      H1306   1.083       .  S
C1298      C1301   1.370       .  A
S1299      C1300   1.725       .  A
C1300      C1301   1.391       .  A
C1301      H1307   1.083       .  S
S1302      C1303   1.723       .  A
C1303      C1304   1.392       .  A
C1304      H1308   1.083       .  S
C1309      S1315   1.708       .  A
C1309      C1314   1.385       .  A
C1309      C1310   1.403       .  A
C1310      C1311   1.404       .  A
C1310      H1321   1.083   1_545  S
C1311      C1320   1.373   1_545  A
C1311      C1312   1.387       .  A
C1312      S1318   1.708       .  A
C1312      C1313   1.402       .  A
C1313      C1314   1.403       .  A
C1313      H1322   1.083       .  S
C1314      C1317   1.371       .  A
S1315      C1316   1.729       .  A
C1316      C1317   1.389       .  A
C1317      H1323   1.083       .  S
S1318      C1319   1.723       .  A
C1319      C1320   1.389   1_545  A
C1320      H1324   1.083       .  S
C1325      S1331   1.712       .  A
C1325      C1330   1.385       .  A
C1325      C1326   1.403       .  A
C1326      C1327   1.405       .  A
C1326      H1337   1.083       .  S
C1327      C1336   1.371       .  A
C1327      C1328   1.385       .  A
C1328      S1334   1.714       .  A
C1328      C1329   1.405       .  A
C1329      C1330   1.407       .  A
C1329      H1338   1.083       .  S
C1330      C1333   1.373       .  A
S1331      C1332   1.725       .  A
C1332      C1333   1.394       .  A
C1333      H1339   1.082       .  S
S1334      C1335   1.725       .  A
C1335      C1336   1.392       .  A
C1336      H1340   1.083       .  S
C1341      S1347   1.722       .  A
C1341      C1346   1.385       .  A
C1341      C1342   1.411       .  A
C1342      C1343   1.412       .  A
C1342      H1353   1.083       .  S
C1343      C1352   1.381       .  A
C1343      C1344   1.387       .  A
C1344      S1350   1.699       .  A
C1344      C1345   1.395       .  A
C1345      C1346   1.397       .  A
C1345      H1354   1.083       .  S
C1346      C1349   1.364       .  A
S1347      C1348   1.727       .  A
C1348      C1349   1.385       .  A
C1349      H1355   1.084       .  S
S1350      C1351   1.720       .  A
C1351      C1352   1.392       .  A
C1352      H1356   1.083       .  S
C1357      S1363   1.710       .  A
C1357      C1362   1.386       .  A
C1357      C1358   1.407       .  A
C1358      C1359   1.406       .  A
C1358      H1369   1.083       .  S
C1359      C1368   1.379       .  A
C1359      C1360   1.386       .  A
C1360      S1366   1.706       .  A
C1360      C1361   1.404       .  A
C1361      C1362   1.404       .  A
C1361      H1370   1.083       .  S
C1362      C1365   1.377       .  A
S1363      C1364   1.727       .  A
C1364      C1365   1.389       .  A
C1365      H1371   1.083       .  S
S1366      C1367   1.727       .  A
C1367      C1368   1.389       .  A
C1368      H1372   1.083       .  S
C1373      S1379   1.708       .  A
C1373      C1378   1.387       .  A
C1373      C1374   1.405       .  A
C1374      C1375   1.405       .  A
C1374      H1385   1.083       .  S
C1375      C1384   1.378       .  A
C1375      C1376   1.387       .  A
C1376      S1382   1.706       .  A
C1376      C1377   1.404       .  A
C1377      C1378   1.404       .  A
C1377      H1386   1.083       .  S
C1378      C1381   1.376       .  A
S1379      C1380   1.726       .  A
C1380      C1381   1.388       .  A
C1381      H1387   1.083       .  S
S1382      C1383   1.726       .  A
C1383      C1384   1.388       .  A
C1384      H1388   1.083       .  S
C1389      S1395   1.711       .  A
C1389      C1394   1.385       .  A
C1389      C1390   1.406       .  A
C1390      C1391   1.407       .  A
C1390      H1401   1.083       .  S
C1391      C1400   1.376       .  A
C1391      C1392   1.386       .  A
C1392      S1398   1.710       .  A
C1392      C1393   1.404       .  A
C1393      C1394   1.405       .  A
C1393      H1402   1.083       .  S
C1394      C1397   1.374       .  A
S1395      C1396   1.728       .  A
C1396      C1397   1.393       .  A
C1397      H1403   1.081       .  S
S1398      C1399   1.725       .  A
C1399      C1400   1.390       .  A
C1400      H1404   1.083       .  S
C1405      S1411   1.704       .  A
C1405      C1410   1.387       .  A
C1405      C1406   1.400       .  A
C1406      C1407   1.400       .  A
C1406      H1417   1.083       .  S
C1407      C1416   1.369       .  A
C1407      C1408   1.386       .  A
C1408      S1414   1.713       .  A
C1408      C1409   1.407       .  A
C1409      C1410   1.408       .  A
C1409      H1418   1.083       .  S
C1410      C1413   1.377       .  A
S1411      C1412   1.722       .  A
C1412      C1413   1.390       .  A
C1413      H1419   1.083       .  S
S1414      C1415   1.726       .  A
C1415      C1416   1.385       .  A
C1416      H1420   1.083       .  S
C1421      S1427   1.714       .  A
C1421      C1426   1.386       .  A
C1421      C1422   1.404       .  A
C1422      C1423   1.406       .  A
C1422      H1433   1.083       .  S
C1423      C1432   1.373       .  A
C1423      C1424   1.386       .  A
C1424      S1430   1.713       .  A
C1424      C1425   1.404       .  A
C1425      C1426   1.405       .  A
C1425      H1434   1.083       .  S
C1426      C1429   1.373       .  A
S1427      C1428   1.724       .  A
C1428      C1429   1.389       .  A
C1429      H1435   1.083       .  S
S1430      C1431   1.724       .  A
C1431      C1432   1.390       .  A
C1432      H1436   1.083       .  S
C1437      S1443   1.708       .  A
C1437      C1442   1.387       .  A
C1437      C1438   1.404   1_455  A
C1438      C1439   1.403       .  A
C1438      H1449   1.083       .  S
C1439      C1448   1.373       .  A
C1439      C1440   1.385   1_655  A
C1440      S1446   1.707       .  A
C1440      C1441   1.404       .  A
C1441      C1442   1.404       .  A
C1441      H1450   1.083       .  S
C1442      C1445   1.375       .  A
S1443      C1444   1.725       .  A
C1444      C1445   1.388       .  A
C1445      H1451   1.083       .  S
S1446      C1447   1.730   1_455  A
C1447      C1448   1.390       .  A
C1448      H1452   1.083       .  S
C1453      S1459   1.708       .  A
C1453      C1458   1.387       .  A
C1453      C1454   1.404       .  A
C1454      C1455   1.404       .  A
C1454      H1465   1.083       .  S
C1455      C1464   1.376       .  A
C1455      C1456   1.387       .  A
C1456      S1462   1.708       .  A
C1456      C1457   1.405       .  A
C1457      C1458   1.404       .  A
C1457      H1466   1.083       .  S
C1458      C1461   1.376       .  A
S1459      C1460   1.724       .  A
C1460      C1461   1.389       .  A
C1461      H1467   1.083       .  S
S1462      C1463   1.725       .  A
C1463      C1464   1.388       .  A
C1464      H1468   1.083       .  S
C1469      S1475   1.709       .  A
C1469      C1474   1.387       .  A
C1469      C1470   1.402       .  A
C1470      C1471   1.403       .  A
C1470      H1481   1.083       .  S
C1471      C1480   1.370       .  A
C1471      C1472   1.387       .  A
C1472      S1478   1.709       .  A
C1472      C1473   1.402       .  A
C1473      C1474   1.403       .  A
C1473      H1482   1.083       .  S
C1474      C1477   1.370       .  A
S1475      C1476   1.722       .  A
C1476      C1477   1.387       .  A
C1477      H1483   1.083       .  S
S1478      C1479   1.723       .  A
C1479      C1480   1.387       .  A
C1480      H1484   1.083       .  S
C1485      S1491   1.708       .  A
C1485      C1490   1.387       .  A
C1485      C1486   1.402       .  A
C1486      C1487   1.403       .  A
C1486      H1497   1.083       .  S
C1487      C1496   1.372       .  A
C1487      C1488   1.387       .  A
C1488      S1494   1.709       .  A
C1488      C1489   1.403       .  A
C1489      C1490   1.404       .  A
C1489      H1498   1.083       .  S
C1490      C1493   1.372       .  A
S1491      C1492   1.723       .  A
C1492      C1493   1.388       .  A
C1493      H1499   1.083       .  S
S1494      C1495   1.723       .  A
C1495      C1496   1.387       .  A
C1496      H1500   1.083       .  S
C1501      S1507   1.714   1_545  A
C1501      C1506   1.386       .  A
C1501      C1502   1.407       .  A
C1502      C1503   1.408       .  A
C1502      H1513   1.083       .  S
C1503      C1512   1.377       .  A
C1503      C1504   1.385       .  A
C1504      S1510   1.706       .  A
C1504      C1505   1.403       .  A
C1505      C1506   1.404       .  A
C1505      H1514   1.083       .  S
C1506      C1509   1.373       .  A
S1507      C1508   1.727   1_565  A
C1508      C1509   1.388       .  A
C1509      H1515   1.083       .  S
S1510      C1511   1.728       .  A
C1511      C1512   1.396       .  A
C1512      H1516   1.080       .  S
C1517      S1523   1.706       .  A
C1517      C1522   1.387       .  A
C1517      C1518   1.401       .  A
C1518      C1519   1.402       .  A
C1518      H1529   1.083       .  S
C1519      C1528   1.371       .  A
C1519      C1520   1.387       .  A
C1520      S1526   1.711       .  A
C1520      C1521   1.405       .  A
C1521      C1522   1.406       .  A
C1521      H1530   1.083       .  S
C1522      C1525   1.376       .  A
S1523      C1524   1.723       .  A
C1524      C1525   1.389       .  A
C1525      H1531   1.083       .  S
S1526      C1527   1.725       .  A
C1527      C1528   1.387       .  A
C1528      H1532   1.083       .  S
C1533      S1539   1.705       .  A
C1533      C1538   1.387       .  A
C1533      C1534   1.400       .  A
C1534      C1535   1.401       .  A
C1534      H1545   1.083       .  S
C1535      C1544   1.368       .  A
C1535      C1536   1.387       .  A
C1536      S1542   1.706       .  A
C1536      C1537   1.401       .  A
C1537      C1538   1.402       .  A
C1537      H1546   1.083       .  S
C1538      C1541   1.369       .  A
S1539      C1540   1.721       .  A
C1540      C1541   1.386       .  A
C1541      H1547   1.083       .  S
S1542      C1543   1.723       .  A
C1543      C1544   1.384       .  A
C1544      H1548   1.083       .  S
C1549      S1555   1.705       .  A
C1549      C1554   1.387   1_545  A
C1549      C1550   1.403       .  A
C1550      C1551   1.402   1_545  A
C1550      H1561   1.083       .  S
C1551      C1560   1.375       .  A
C1551      C1552   1.386       .  A
C1552      S1558   1.712       .  A
C1552      C1553   1.408       .  A
C1553      C1554   1.408       .  A
C1553      H1562   1.083       .  S
C1554      C1557   1.381       .  A
S1555      C1556   1.724       .  A
C1556      C1557   1.391   1_545  A
C1557      H1563   1.083       .  S
S1558      C1559   1.728       .  A
C1559      C1560   1.388       .  A
C1560      H1564   1.083   1_565  S
C1565      S1571   1.711       .  A
C1565      C1570   1.387       .  A
C1565      C1566   1.403       .  A
C1566      C1567   1.404       .  A
C1566      H1577   1.083       .  S
C1567      C1576   1.372       .  A
C1567      C1568   1.387       .  A
C1568      S1574   1.707       .  A
C1568      C1569   1.400       .  A
C1569      C1570   1.402       .  A
C1569      H1578   1.083       .  S
C1570      C1573   1.369       .  A
S1571      C1572   1.724       .  A
C1572      C1573   1.386       .  A
C1573      H1579   1.083       .  S
S1574      C1575   1.722       .  A
C1575      C1576   1.387       .  A
C1576      H1580   1.083       .  S
C1581      S1587   1.711       .  A
C1581      C1586   1.387   1_455  A
C1581      C1582   1.406       .  A
C1582      C1583   1.406       .  A
C1582      H1593   1.083       .  S
C1583      C1592   1.377       .  A
C1583      C1584   1.387   1_455  A
C1584      S1590   1.704       .  A
C1584      C1585   1.401       .  A
C1585      C1586   1.401       .  A
C1585      H1594   1.083       .  S
C1586      C1589   1.371       .  A
S1587      C1588   1.725       .  A
C1588      C1589   1.386   1_455  A
C1589      H1595   1.083       .  S
S1590      C1591   1.723       .  A
C1591      C1592   1.389   1_655  A
C1592      H1596   1.083       .  S
C1597      S1603   1.703       .  A
C1597      C1602   1.387       .  A
C1597      C1598   1.398       .  A
C1598      C1599   1.399       .  A
C1598      H1609   1.083       .  S
C1599      C1608   1.367       .  A
C1599      C1600   1.387       .  A
C1600      S1606   1.710       .  A
C1600      C1601   1.404       .  A
C1601      C1602   1.405       .  A
C1601      H1610   1.083       .  S
C1602      C1605   1.373       .  A
S1603      C1604   1.720       .  A
C1604      C1605   1.388       .  A
C1605      H1611   1.083       .  S
S1606      C1607   1.724       .  A
C1607      C1608   1.384       .  A
C1608      H1612   1.083       .  S
C1613      S1619   1.713       .  A
C1613      C1618   1.386   1_655  A
C1613      C1614   1.406       .  A
C1614      C1615   1.407       .  A
C1614      H1625   1.083       .  S
C1615      C1624   1.376       .  A
C1615      C1616   1.385       .  A
C1616      S1622   1.704   1_655  A
C1616      C1617   1.401   1_655  A
C1617      C1618   1.402       .  A
C1617      H1626   1.083       .  S
C1618      C1621   1.372       .  A
S1619      C1620   1.727   1_655  A
C1620      C1621   1.386       .  A
C1621      H1627   1.083       .  S
S1622      C1623   1.728   1_455  A
C1623      C1624   1.393       .  A
C1624      H1628   1.081       .  S
C1629      S1635   1.716       .  A
C1629      C1634   1.386       .  A
C1629      C1630   1.407       .  A
C1630      C1631   1.409       .  A
C1630      H1641   1.083       .  S
C1631      C1640   1.376       .  A
C1631      C1632   1.387       .  A
C1632      S1638   1.706       .  A
C1632      C1633   1.399       .  A
C1633      C1634   1.401       .  A
C1633      H1642   1.083       .  S
C1634      C1637   1.369       .  A
S1635      C1636   1.727       .  A
C1636      C1637   1.386       .  A
C1637      H1643   1.083       .  S
S1638      C1639   1.720       .  A
C1639      C1640   1.392       .  A
C1640      H1644   1.083       .  S
C1645      S1651   1.711       .  A
C1645      C1650   1.387       .  A
C1645      C1646   1.406       .  A
C1646      C1647   1.406       .  A
C1646      H1657   1.083       .  S
C1647      C1656   1.377       .  A
C1647      C1648   1.387       .  A
C1648      S1654   1.701       .  A
C1648      C1649   1.399       .  A
C1649      C1650   1.399       .  A
C1649      H1658   1.083       .  S
C1650      C1653   1.370       .  A
S1651      C1652   1.725       .  A
C1652      C1653   1.385       .  A
C1653      H1659   1.083       .  S
S1654      C1655   1.722       .  A
C1655      C1656   1.389       .  A
C1656      H1660   1.083       .  S
C1661      S1667   1.711       .  A
C1661      C1666   1.387       .  A
C1661      C1662   1.407       .  A
C1662      C1663   1.407       .  A
C1662      H1673   1.083       .  S
C1663      C1672   1.379       .  A
C1663      C1664   1.386       .  A
C1664      S1670   1.700       .  A
C1664      C1665   1.400       .  A
C1665      C1666   1.400       .  A
C1665      H1674   1.083       .  S
C1666      C1669   1.371       .  A
S1667      C1668   1.726       .  A
C1668      C1669   1.385       .  A
C1669      H1675   1.083   1_545  S
S1670      C1671   1.727       .  A
C1671      C1672   1.392       .  A
C1672      H1676   1.082       .  S
C1677      S1683   1.710       .  A
C1677      C1682   1.387       .  A
C1677      C1678   1.404       .  A
C1678      C1679   1.405       .  A
C1678      H1689   1.083       .  S
C1679      C1688   1.374       .  A
C1679      C1680   1.387       .  A
C1680      S1686   1.707       .  A
C1680      C1681   1.402       .  A
C1681      C1682   1.402       .  A
C1681      H1690   1.083       .  S
C1682      C1685   1.371       .  A
S1683      C1684   1.724       .  A
C1684      C1685   1.387       .  A
C1685      H1691   1.083       .  S
S1686      C1687   1.724       .  A
C1687      C1688   1.388       .  A
C1688      H1692   1.083       .  S
C1693      S1699   1.709       .  A
C1693      C1698   1.387       .  A
C1693      C1694   1.403       .  A
C1694      C1695   1.404       .  A
C1694      H1705   1.083       .  S
C1695      C1704   1.372       .  A
C1695      C1696   1.387       .  A
C1696      S1702   1.706       .  A
C1696      C1697   1.401       .  A
C1697      C1698   1.402       .  A
C1697      H1706   1.083       .  S
C1698      C1701   1.370       .  A
S1699      C1700   1.723       .  A
C1700      C1701   1.386       .  A
C1701      H1707   1.083       .  S
S1702      C1703   1.723       .  A
C1703      C1704   1.387       .  A
C1704      H1708   1.083       .  S
C1709      S1715   1.708       .  A
C1709      C1714   1.387       .  A
C1709      C1710   1.400       .  A
C1710      C1711   1.402       .  A
C1710      H1721   1.083       .  S
C1711      C1720   1.369       .  A
C1711      C1712   1.386       .  A
C1712      S1718   1.715       .  A
C1712      C1713   1.405       .  A
C1713      C1714   1.407       .  A
C1713      H1722   1.083   1_545  S
C1714      C1717   1.374       .  A
S1715      C1716   1.722       .  A
C1716      C1717   1.389       .  A
C1717      H1723   1.083       .  S
S1718      C1719   1.725       .  A
C1719      C1720   1.387       .  A
C1720      H1724   1.083       .  S
C1725      S1731   1.707       .  A
C1725      C1730   1.387       .  A
C1725      C1726   1.400   1_545  A
C1726      C1727   1.401       .  A
C1726      H1737   1.083       .  S
C1727      C1736   1.369       .  A
C1727      C1728   1.386   1_565  A
C1728      S1734   1.714       .  A
C1728      C1729   1.406       .  A
C1729      C1730   1.407       .  A
C1729      H1738   1.083       .  S
C1730      C1733   1.374       .  A
S1731      C1732   1.720       .  A
C1732      C1733   1.391       .  A
C1733      H1739   1.083       .  S
S1734      C1735   1.726       .  A
C1735      C1736   1.386   1_545  A
C1736      H1740   1.083       .  S
C1741      S1747   1.721       .  A
C1741      C1746   1.385       .  A
C1741      C1742   1.414       .  A
C1742      C1743   1.413       .  A
C1742      H1753   1.083       .  S
C1743      C1752   1.386       .  A
C1743      C1744   1.386       .  A
C1744      S1750   1.701       .  A
C1744      C1745   1.400       .  A
C1745      C1746   1.400       .  A
C1745      H1754   1.083       .  S
C1746      C1749   1.371       .  A
S1747      C1748   1.730       .  A
C1748      C1749   1.387       .  A
C1749      H1755   1.083       .  S
S1750      C1751   1.724       .  A
C1751      C1752   1.394       .  A
C1752      H1756   1.083       .  S
C1757      S1763   1.714       .  A
C1757      C1762   1.384       .  A
C1757      C1758   1.408       .  A
C1758      C1759   1.409       .  A
C1758      H1769   1.083       .  S
C1759      C1768   1.379       .  A
C1759      C1760   1.387       .  A
C1760      S1766   1.707       .  A
C1760      C1761   1.402       .  A
C1761      C1762   1.403       .  A
C1761      H1770   1.083       .  S
C1762      C1765   1.372       .  A
S1763      C1764   1.729       .  A
C1764      C1765   1.392       .  A
C1765      H1771   1.081       .  S
S1766      C1767   1.723       .  A
C1767      C1768   1.392       .  A
C1768      H1772   1.083       .  S
C1773      S1779   1.706       .  A
C1773      C1778   1.385   1_565  A
C1773      C1774   1.404       .  A
C1774      C1775   1.404       .  A
C1774      H1785   1.083       .  S
C1775      C1784   1.376       .  A
C1775      C1776   1.387   1_565  A
C1776      S1782   1.707       .  A
C1776      C1777   1.404       .  A
C1777      C1778   1.404       .  A
C1777      H1786   1.083       .  S
C1778      C1781   1.374       .  A
S1779      C1780   1.729       .  A
C1780      C1781   1.391   1_565  A
C1781      H1787   1.083       .  S
S1782      C1783   1.726       .  A
C1783      C1784   1.388   1_545  A
C1784      H1788   1.083       .  S
C1789      S1795   1.706       .  A
C1789      C1794   1.386       .  A
C1789      C1790   1.408       .  A
C1790      C1791   1.406       .  A
C1790      H1801   1.083       .  S
C1791      C1800   1.384       .  A
C1791      C1792   1.386   1_554  A
C1792      S1798   1.697       .  A
C1792      C1793   1.403       .  A
C1793      C1794   1.401   1_556  A
C1793      H1802   1.083       .  S
C1794      C1797   1.377       .  A
S1795      C1796   1.730       .  A
C1796      C1797   1.386       .  A
C1797      H1803   1.083   1_554  S
S1798      C1799   1.731   1_556  A
C1799      C1800   1.390       .  A
C1800      H1804   1.083       .  S
C1805      S1811   1.710       .  A
C1805      C1810   1.387       .  A
C1805      C1806   1.406       .  A
C1806      C1807   1.405       .  A
C1806      H1817   1.083       .  S
C1807      C1816   1.377       .  A
C1807      C1808   1.386       .  A
C1808      S1814   1.705       .  A
C1808      C1809   1.403       .  A
C1809      C1810   1.403       .  A
C1809      H1818   1.083       .  S
C1810      C1813   1.375       .  A
S1811      C1812   1.726       .  A
C1812      C1813   1.388       .  A
C1813      H1819   1.083       .  S
S1814      C1815   1.726       .  A
C1815      C1816   1.389       .  A
C1816      H1820   1.083       .  S
C1821      S1827   1.720       .  A
C1821      C1826   1.385   1_554  A
C1821      C1822   1.412       .  A
C1822      C1823   1.412       .  A
C1822      H1833   1.083       .  S
C1823      C1832   1.384       .  A
C1823      C1824   1.387   1_554  A
C1824      S1830   1.701       .  A
C1824      C1825   1.398       .  A
C1825      C1826   1.399       .  A
C1825      H1834   1.083       .  S
C1826      C1829   1.368       .  A
S1827      C1828   1.727       .  A
C1828      C1829   1.387   1_554  A
C1829      H1835   1.083       .  S
S1830      C1831   1.724   1_556  A
C1831      C1832   1.392       .  A
C1832      H1836   1.083       .  S
C1837      S1843   1.710       .  A
C1837      C1842   1.385       .  A
C1837      C1838   1.406       .  A
C1838      C1839   1.406       .  A
C1838      H1849   1.083       .  S
C1839      C1848   1.376       .  A
C1839      C1840   1.387       .  A
C1840      S1846   1.705       .  A
C1840      C1841   1.401       .  A
C1841      C1842   1.401       .  A
C1841      H1850   1.083   1_455  S
C1842      C1845   1.370       .  A
S1843      C1844   1.730       .  A
C1844      C1845   1.389       .  A
C1845      H1851   1.083       .  S
S1846      C1847   1.723       .  A
C1847      C1848   1.389       .  A
C1848      H1852   1.083       .  S
C1853      S1859   1.717       .  A
C1853      C1858   1.385       .  A
C1853      C1854   1.406       .  A
C1854      C1855   1.408       .  A
C1854      H1865   1.083       .  S
C1855      C1864   1.374       .  A
C1855      C1856   1.385       .  A
C1856      S1862   1.710   1_554  A
C1856      C1857   1.401   1_554  A
C1857      C1858   1.404   1_556  A
C1857      H1866   1.083       .  S
C1858      C1861   1.369   1_554  A
S1859      C1860   1.726       .  A
C1860      C1861   1.392   1_554  A
C1861      H1867   1.082       .  S
S1862      C1863   1.722   1_556  A
C1863      C1864   1.393       .  A
C1864      H1868   1.082       .  S
C1869      S1875   1.697       .  A
C1869      C1874   1.388       .  A
C1869      C1870   1.396       .  A
C1870      C1871   1.396       .  A
C1870      H1881   1.083       .  S
C1871      C1880   1.365       .  A
C1871      C1872   1.386       .  A
C1872      S1878   1.717       .  A
C1872      C1873   1.410       .  A
C1873      C1874   1.410       .  A
C1873      H1882   1.083       .  S
C1874      C1877   1.381       .  A
S1875      C1876   1.721       .  A
C1876      C1877   1.390       .  A
C1877      H1883   1.083       .  S
S1878      C1879   1.725       .  A
C1879      C1880   1.383       .  A
C1880      H1884   1.083       .  S
C1885      S1891   1.703   1_455  A
C1885      C1890   1.387       .  A
C1885      C1886   1.402       .  A
C1886      C1887   1.402       .  A
C1886      H1897   1.083   1_455  S
C1887      C1896   1.373       .  A
C1887      C1888   1.385       .  A
C1888      S1894   1.707       .  A
C1888      C1889   1.406       .  A
C1889      C1890   1.405       .  A
C1889      H1898   1.083       .  S
C1890      C1893   1.377       .  A
S1891      C1892   1.724   1_655  A
C1892      C1893   1.388       .  A
C1893      H1899   1.083       .  S
S1894      C1895   1.731       .  A
C1895      C1896   1.389       .  A
C1896      H1900   1.083       .  S
C1901      S1907   1.712       .  A
C1901      C1906   1.385       .  A
C1901      C1902   1.403       .  A
C1902      C1903   1.405       .  A
C1902      H1913   1.083       .  S
C1903      C1912   1.370       .  A
C1903      C1904   1.386       .  A
C1904      S1910   1.713   1_554  A
C1904      C1905   1.404   1_554  A
C1905      C1906   1.406   1_556  A
C1905      H1914   1.083       .  S
C1906      C1909   1.371   1_554  A
S1907      C1908   1.724       .  A
C1908      C1909   1.392   1_554  A
C1909      H1915   1.082       .  S
S1910      C1911   1.723   1_556  A
C1911      C1912   1.390       .  A
C1912      H1916   1.083       .  S
C1917      S1923   1.714   1_554  A
C1917      C1922   1.386       .  A
C1917      C1918   1.404   1_554  A
C1918      C1919   1.406   1_556  A
C1918      H1929   1.083       .  S
C1919      C1928   1.372   1_554  A
C1919      C1920   1.384       .  A
C1920      S1926   1.717       .  A
C1920      C1921   1.407       .  A
C1921      C1922   1.409       .  A
C1921      H1930   1.083       .  S
C1922      C1925   1.375       .  A
S1923      C1924   1.723   1_656  A
C1924      C1925   1.393   1_455  A
C1925      H1931   1.083       .  S
S1926      C1927   1.727       .  A
C1927      C1928   1.395   1_554  A
C1928      H1932   1.082       .  S
C1933      S1939   1.709       .  A
C1933      C1938   1.387       .  A
C1933      C1934   1.401       .  A
C1934      C1935   1.403       .  A
C1934      H1945   1.083       .  S
C1935      C1944   1.369       .  A
C1935      C1936   1.385       .  A
C1936      S1942   1.713       .  A
C1936      C1937   1.405       .  A
C1937      C1938   1.406       .  A
C1937      H1946   1.083       .  S
C1938      C1941   1.373       .  A
S1939      C1940   1.723       .  A
C1940      C1941   1.389       .  A
C1941      H1947   1.083       .  S
S1942      C1943   1.728       .  A
C1943      C1944   1.390       .  A
C1944      H1948   1.083       .  S
C1949      S1955   1.714       .  A
C1949      C1954   1.385       .  A
C1949      C1950   1.407       .  A
C1950      C1951   1.408       .  A
C1950      H1961   1.083       .  S
C1951      C1960   1.376       .  A
C1951      C1952   1.387       .  A
C1952      S1958   1.704       .  A
C1952      C1953   1.399       .  A
C1953      C1954   1.400       .  A
C1953      H1962   1.083       .  S
C1954      C1957   1.367       .  A
S1955      C1956   1.727       .  A
C1956      C1957   1.389       .  A
C1957      H1963   1.082       .  S
S1958      C1959   1.721       .  A
C1959      C1960   1.390       .  A
C1960      H1964   1.083       .  S
C1965      S1971   1.707       .  A
C1965      C1970   1.387       .  A
C1965      C1966   1.400       .  A
C1966      C1967   1.402       .  A
C1966      H1977   1.083       .  S
C1967      C1976   1.368       .  A
C1967      C1968   1.387       .  A
C1968      S1974   1.711       .  A
C1968      C1969   1.403       .  A
C1969      C1970   1.405       .  A
C1969      H1978   1.083       .  S
C1970      C1973   1.372       .  A
S1971      C1972   1.721       .  A
C1972      C1973   1.388       .  A
C1973      H1979   1.083       .  S
S1974      C1975   1.724       .  A
C1975      C1976   1.386       .  A
C1976      H1980   1.083       .  S
C1981      S1987   1.701       .  A
C1981      C1986   1.387       .  A
C1981      C1982   1.399       .  A
C1982      C1983   1.399       .  A
C1982      H1993   1.083       .  S
C1983      C1992   1.370       .  A
C1983      C1984   1.386       .  A
C1984      S1990   1.708       .  A
C1984      C1985   1.405       .  A
C1985      C1986   1.405       .  A
C1985      H1994   1.083       .  S
C1986      C1989   1.376       .  A
S1987      C1988   1.721       .  A
C1988      C1989   1.389       .  A
C1989      H1995   1.083       .  S
S1990      C1991   1.730       .  A
C1991      C1992   1.387       .  A
C1992      H1996   1.083       .  S
C1997      S2003   1.705       .  A
C1997      C2002   1.387       .  A
C1997      C1998   1.400       .  A
C1998      C1999   1.401       .  A
C1998      H2009   1.083       .  S
C1999      C2008   1.369       .  A
C1999      C2000   1.387       .  A
C2000      S2006   1.706       .  A
C2000      C2001   1.400       .  A
C2001      C2002   1.401       .  A
C2001      H2010   1.083       .  S
C2002      C2005   1.369       .  A
S2003      C2004   1.722       .  A
C2004      C2005   1.385       .  A
C2005      H2011   1.083       .  S
S2006      C2007   1.721       .  A
C2007      C2008   1.386       .  A
C2008      H2012   1.083       .  S
C2013      S2019   1.705       .  A
C2013      C2018   1.387       .  A
C2013      C2014   1.400       .  A
C2014      C2015   1.401       .  A
C2014      H2025   1.083       .  S
C2015      C2024   1.368       .  A
C2015      C2016   1.385       .  A
C2016      S2022   1.708       .  A
C2016      C2017   1.403       .  A
C2017      C2018   1.404       .  A
C2017      H2026   1.083       .  S
C2018      C2021   1.372       .  A
S2019      C2020   1.722       .  A
C2020      C2021   1.387       .  A
C2021      H2027   1.083       .  S
S2022      C2023   1.727       .  A
C2023      C2024   1.390       .  A
C2024      H2028   1.081       .  S
C2029      S2035   1.707       .  A
C2029      C2034   1.387       .  A
C2029      C2030   1.399       .  A
C2030      C2031   1.401       .  A
C2030      H2041   1.083       .  S
C2031      C2040   1.367       .  A
C2031      C2032   1.387       .  A
C2032      S2038   1.709       .  A
C2032      C2033   1.402       .  A
C2033      C2034   1.404       .  A
C2033      H2042   1.083       .  S
C2034      C2037   1.370       .  A
S2035      C2036   1.720       .  A
C2036      C2037   1.387       .  A
C2037      H2043   1.083       .  S
S2038      C2039   1.723       .  A
C2039      C2040   1.385       .  A
C2040      H2044   1.083       .  S
C2045      S2051   1.707       .  A
C2045      C2050   1.385   1_545  A
C2045      C2046   1.405       .  A
C2046      C2047   1.404   1_545  A
C2046      H2057   1.083       .  S
C2047      C2056   1.376       .  A
C2047      C2048   1.387       .  A
C2048      S2054   1.706       .  A
C2048      C2049   1.403       .  A
C2049      C2050   1.403       .  A
C2049      H2058   1.083       .  S
C2050      C2053   1.374       .  A
S2051      C2052   1.730       .  A
C2052      C2053   1.390   1_545  A
C2053      H2059   1.083       .  S
S2054      C2055   1.724       .  A
C2055      C2056   1.388       .  A
C2056      H2060   1.083   1_565  S
C2061      S2067   1.704       .  A
C2061      C2066   1.387       .  A
C2061      C2062   1.401       .  A
C2062      C2063   1.401       .  A
C2062      H2073   1.083       .  S
C2063      C2072   1.370       .  A
C2063      C2064   1.385       .  A
C2064      S2070   1.711       .  A
C2064      C2065   1.407       .  A
C2065      C2066   1.407       .  A
C2065      H2074   1.083       .  S
C2066      C2069   1.377       .  A
S2067      C2068   1.723       .  A
C2068      C2069   1.390       .  A
C2069      H2075   1.083       .  S
S2070      C2071   1.731       .  A
C2071      C2072   1.389       .  A
C2072      H2076   1.083       .  S
C2077      S2083   1.702       .  A
C2077      C2082   1.387       .  A
C2077      C2078   1.400       .  A
C2078      C2079   1.400       .  A
C2078      H2089   1.083       .  S
C2079      C2088   1.369       .  A
C2079      C2080   1.387       .  A
C2080      S2086   1.708       .  A
C2080      C2081   1.404       .  A
C2081      C2082   1.404       .  A
C2081      H2090   1.083       .  S
C2082      C2085   1.375       .  A
S2083      C2084   1.723       .  A
C2084      C2085   1.387       .  A
C2085      H2091   1.083       .  S
S2086      C2087   1.724       .  A
C2087      C2088   1.384       .  A
C2088      H2092   1.083       .  S
C2093      S2099   1.711       .  A
C2093      C2098   1.387   1_565  A
C2093      C2094   1.405       .  A
C2094      C2095   1.405       .  A
C2094      H2105   1.083       .  S
C2095      C2104   1.375       .  A
C2095      C2096   1.387       .  A
C2096      S2102   1.710   1_565  A
C2096      C2097   1.404   1_565  A
C2097      C2098   1.404       .  A
C2097      H2106   1.083       .  S
C2098      C2101   1.374       .  A
S2099      C2100   1.725   1_565  A
C2100      C2101   1.389       .  A
C2101      H2107   1.083       .  S
S2102      C2103   1.724   1_545  A
C2103      C2104   1.389       .  A
C2104      H2108   1.083       .  S
C2109      S2115   1.704       .  A
C2109      C2114   1.387       .  A
C2109      C2110   1.401       .  A
C2110      C2111   1.401       .  A
C2110      H2121   1.083       .  S
C2111      C2120   1.370       .  A
C2111      C2112   1.387       .  A
C2112      S2118   1.710       .  A
C2112      C2113   1.404       .  A
C2113      C2114   1.405       .  A
C2113      H2122   1.083       .  S
C2114      C2117   1.374       .  A
S2115      C2116   1.723       .  A
C2116      C2117   1.388       .  A
C2117      H2123   1.083       .  S
S2118      C2119   1.724       .  A
C2119      C2120   1.386       .  A
C2120      H2124   1.083       .  S
C2125      S2131   1.711       .  A
C2125      C2130   1.386       .  A
C2125      C2126   1.407       .  A
C2126      C2127   1.407       .  A
C2126      H2137   1.083       .  S
C2127      C2136   1.378       .  A
C2127      C2128   1.386       .  A
C2128      S2134   1.708       .  A
C2128      C2129   1.405       .  A
C2129      C2130   1.405       .  A
C2129      H2138   1.083       .  S
C2130      C2133   1.378       .  A
S2131      C2132   1.727       .  A
C2132      C2133   1.389       .  A
C2133      H2139   1.083       .  S
S2134      C2135   1.728       .  A
C2135      C2136   1.391       .  A
C2136      H2140   1.082       .  S
C2141      S2147   1.706       .  A
C2141      C2146   1.387       .  A
C2141      C2142   1.401       .  A
C2142      C2143   1.402       .  A
C2142      H2153   1.083       .  S
C2143      C2152   1.369       .  A
C2143      C2144   1.387       .  A
C2144      S2150   1.706       .  A
C2144      C2145   1.401       .  A
C2145      C2146   1.402       .  A
C2145      H2154   1.083       .  S
C2146      C2149   1.369       .  A
S2147      C2148   1.722       .  A
C2148      C2149   1.385       .  A
C2149      H2155   1.083       .  S
S2150      C2151   1.723       .  A
C2151      C2152   1.385       .  A
C2152      H2156   1.083       .  S
C2157      S2163   1.704       .  A
C2157      C2162   1.387       .  A
C2157      C2158   1.401       .  A
C2158      C2159   1.401       .  A
C2158      H2169   1.083       .  S
C2159      C2168   1.372       .  A
C2159      C2160   1.385       .  A
C2160      S2166   1.711       .  A
C2160      C2161   1.407       .  A
C2161      C2162   1.407       .  A
C2161      H2170   1.083       .  S
C2162      C2165   1.378       .  A
S2163      C2164   1.723       .  A
C2164      C2165   1.390       .  A
C2165      H2171   1.083       .  S
S2166      C2167   1.731       .  A
C2167      C2168   1.389       .  A
C2168      H2172   1.083       .  S
C2173      S2179   1.708       .  A
C2173      C2178   1.387       .  A
C2173      C2174   1.401       .  A
C2174      C2175   1.402       .  A
C2174      H2185   1.083       .  S
C2175      C2184   1.371       .  A
C2175      C2176   1.386       .  A
C2176      S2182   1.715       .  A
C2176      C2177   1.406       .  A
C2177      C2178   1.407       .  A
C2177      H2186   1.083       .  S
C2178      C2181   1.376       .  A
S2179      C2180   1.721       .  A
C2180      C2181   1.390       .  A
C2181      H2187   1.083   1_455  S
S2182      C2183   1.725       .  A
C2183      C2184   1.387       .  A
C2184      H2188   1.083       .  S
C2189      S2195   1.705       .  A
C2189      C2194   1.387       .  A
C2189      C2190   1.399       .  A
C2190      C2191   1.401       .  A
C2190      H2201   1.083       .  S
C2191      C2200   1.368       .  A
C2191      C2192   1.387       .  A
C2192      S2198   1.711       .  A
C2192      C2193   1.403       .  A
C2193      C2194   1.405       .  A
C2193      H2202   1.083       .  S
C2194      C2197   1.372       .  A
S2195      C2196   1.722       .  A
C2196      C2197   1.387       .  A
C2197      H2203   1.083       .  S
S2198      C2199   1.724       .  A
C2199      C2200   1.386       .  A
C2200      H2204   1.083       .  S
C2205      S2211   1.709       .  A
C2205      C2210   1.387       .  A
C2205      C2206   1.402       .  A
C2206      C2207   1.403       .  A
C2206      H2217   1.083       .  S
C2207      C2216   1.370       .  A
C2207      C2208   1.387       .  A
C2208      S2214   1.705       .  A
C2208      C2209   1.399       .  A
C2209      C2210   1.401       .  A
C2209      H2218   1.083       .  S
C2210      C2213   1.368       .  A
S2211      C2212   1.722       .  A
C2212      C2213   1.385       .  A
C2213      H2219   1.083       .  S
S2214      C2215   1.721       .  A
C2215      C2216   1.386       .  A
C2216      H2220   1.083       .  S
C2221      S2227   1.706       .  A
C2221      C2226   1.387       .  A
C2221      C2222   1.400       .  A
C2222      C2223   1.402       .  A
C2222      H2233   1.083       .  S
C2223      C2232   1.371       .  A
C2223      C2224   1.386       .  A
C2224      S2230   1.719       .  A
C2224      C2225   1.410       .  A
C2225      C2226   1.411       .  A
C2225      H2234   1.083       .  S
C2226      C2229   1.380       .  A
S2227      C2228   1.722       .  A
C2228      C2229   1.391       .  A
C2229      H2235   1.083       .  S
S2230      C2231   1.729       .  A
C2231      C2232   1.388       .  A
C2232      H2236   1.083       .  S
C2237      S2243   1.716       .  A
C2237      C2242   1.386       .  A
C2237      C2238   1.409       .  A
C2238      C2239   1.409       .  A
C2238      H2249   1.083       .  S
C2239      C2248   1.380       .  A
C2239      C2240   1.386       .  A
C2240      S2246   1.708       .  A
C2240      C2241   1.403       .  A
C2241      C2242   1.403       .  A
C2241      H2250   1.083       .  S
C2242      C2245   1.374       .  A
S2243      C2244   1.727       .  A
C2244      C2245   1.389       .  A
C2245      H2251   1.083       .  S
S2246      C2247   1.724       .  A
C2247      C2248   1.393       .  A
C2248      H2252   1.083       .  S
C2253      S2259   1.707       .  A
C2253      C2258   1.387       .  A
C2253      C2254   1.401       .  A
C2254      C2255   1.402       .  A
C2254      H2265   1.083       .  S
C2255      C2264   1.369       .  A
C2255      C2256   1.387       .  A
C2256      S2262   1.705       .  A
C2256      C2257   1.399       .  A
C2257      C2258   1.401       .  A
C2257      H2266   1.083       .  S
C2258      C2261   1.368       .  A
S2259      C2260   1.723       .  A
C2260      C2261   1.385       .  A
C2261      H2267   1.083       .  S
S2262      C2263   1.721       .  A
C2263      C2264   1.385       .  A
C2264      H2268   1.083       .  S
C2269      S2275   1.710       .  A
C2269      C2274   1.386       .  A
C2269      C2270   1.403       .  A
C2270      C2271   1.404       .  A
C2270      H2281   1.083       .  S
C2271      C2280   1.372       .  A
C2271      C2272   1.386       .  A
C2272      S2278   1.711       .  A
C2272      C2273   1.404       .  A
C2273      C2274   1.405       .  A
C2273      H2282   1.083       .  S
C2274      C2277   1.372       .  A
S2275      C2276   1.724       .  A
C2276      C2277   1.391       .  A
C2277      H2283   1.082       .  S
S2278      C2279   1.725       .  A
C2279      C2280   1.388       .  A
C2280      H2284   1.083       .  S
C2285      S2291   1.710       .  A
C2285      C2290   1.386       .  A
C2285      C2286   1.402       .  A
C2286      C2287   1.404       .  A
C2286      H2297   1.083       .  S
C2287      C2296   1.370       .  A
C2287      C2288   1.386       .  A
C2288      S2294   1.715       .  A
C2288      C2289   1.405       .  A
C2289      C2290   1.407       .  A
C2289      H2298   1.083       .  S
C2290      C2293   1.374       .  A
S2291      C2292   1.723       .  A
C2292      C2293   1.390       .  A
C2293      H2299   1.083       .  S
S2294      C2295   1.724       .  A
C2295      C2296   1.389       .  A
C2296      H2300   1.083       .  S
C2301      S2307   1.702       .  A
C2301      C2306   1.388       .  A
C2301      C2302   1.398       .  A
C2302      C2303   1.399       .  A
C2302      H2313   1.083       .  S
C2303      C2312   1.367       .  A
C2303      C2304   1.387       .  A
C2304      S2310   1.707       .  A
C2304      C2305   1.401       .  A
C2305      C2306   1.402       .  A
C2305      H2314   1.083       .  S
C2306      C2309   1.370       .  A
S2307      C2308   1.721       .  A
C2308      C2309   1.385       .  A
C2309      H2315   1.083       .  S
S2310      C2311   1.723       .  A
C2311      C2312   1.384       .  A
C2312      H2316   1.083       .  S
C2317      S2323   1.710       .  A
C2317      C2322   1.387       .  A
C2317      C2318   1.403       .  A
C2318      C2319   1.404       .  A
C2318      H2329   1.083   1_565  S
C2319      C2328   1.373       .  A
C2319      C2320   1.387       .  A
C2320      S2326   1.707       .  A
C2320      C2321   1.401       .  A
C2321      C2322   1.402       .  A
C2321      H2330   1.083       .  S
C2322      C2325   1.371       .  A
S2323      C2324   1.724       .  A
C2324      C2325   1.387       .  A
C2325      H2331   1.083       .  S
S2326      C2327   1.723       .  A
C2327      C2328   1.388       .  A
C2328      H2332   1.083   1_565  S
C2333      S2339   1.711   1_565  A
C2333      C2338   1.386       .  A
C2333      C2334   1.402   1_565  A
C2334      C2335   1.404   1_545  A
C2334      H2345   1.083       .  S
C2335      C2344   1.371       .  A
C2335      C2336   1.386       .  A
C2336      S2342   1.713       .  A
C2336      C2337   1.404       .  A
C2337      C2338   1.406       .  A
C2337      H2346   1.083       .  S
C2338      C2341   1.372       .  A
S2339      C2340   1.723   1_545  A
C2340      C2341   1.389       .  A
C2341      H2347   1.083       .  S
S2342      C2343   1.724       .  A
C2343      C2344   1.389       .  A
C2344      H2348   1.083   1_565  S
C2349      S2355   1.710       .  A
C2349      C2354   1.387       .  A
C2349      C2350   1.404       .  A
C2350      C2351   1.405       .  A
C2350      H2361   1.083       .  S
C2351      C2360   1.373       .  A
C2351      C2352   1.388       .  A
C2352      S2358   1.698       .  A
C2352      C2353   1.396       .  A
C2353      C2354   1.396       .  A
C2353      H2362   1.083       .  S
C2354      C2357   1.364       .  A
S2355      C2356   1.724       .  A
C2356      C2357   1.382       .  A
C2357      H2363   1.083       .  S
S2358      C2359   1.719       .  A
C2359      C2360   1.387       .  A
C2360      H2364   1.083       .  S
C2365      S2371   1.706       .  A
C2365      C2370   1.387       .  A
C2365      C2366   1.399       .  A
C2366      C2367   1.401       .  A
C2366      H2377   1.083       .  S
C2367      C2376   1.366       .  A
C2367      C2368   1.385       .  A
C2368      S2374   1.716       .  A
C2368      C2369   1.406       .  A
C2369      C2370   1.408       .  A
C2369      H2378   1.083       .  S
C2370      C2373   1.376       .  A
S2371      C2372   1.723       .  A
C2372      C2373   1.390       .  A
C2373      H2379   1.083   1_565  S
S2374      C2375   1.725       .  A
C2375      C2376   1.389       .  A
C2376      H2380   1.083       .  S
C2381      S2387   1.700       .  A
C2381      C2386   1.388       .  A
C2381      C2382   1.397       .  A
C2382      C2383   1.398       .  A
C2382      H2393   1.083       .  S
C2383      C2392   1.366       .  A
C2383      C2384   1.387       .  A
C2384      S2390   1.710       .  A
C2384      C2385   1.404       .  A
C2385      C2386   1.404       .  A
C2385      H2394   1.083       .  S
C2386      C2389   1.373       .  A
S2387      C2388   1.720       .  A
C2388      C2389   1.387       .  A
C2389      H2395   1.083       .  S
S2390      C2391   1.724       .  A
C2391      C2392   1.384       .  A
C2392      H2396   1.083       .  S
C2397      S2403   1.708   1_545  A
C2397      C2402   1.387       .  A
C2397      C2398   1.400   1_545  A
C2398      C2399   1.402   1_565  A
C2398      H2409   1.083       .  S
C2399      C2408   1.369   1_545  A
C2399      C2400   1.386       .  A
C2400      S2406   1.716       .  A
C2400      C2401   1.406       .  A
C2401      C2402   1.408       .  A
C2401      H2410   1.083       .  S
C2402      C2405   1.374       .  A
S2403      C2404   1.720   1_565  A
C2404      C2405   1.391       .  A
C2405      H2411   1.083       .  S
S2406      C2407   1.726       .  A
C2407      C2408   1.387   1_545  A
C2408      H2412   1.083       .  S
