geometry optimzed in LAMMPS
_audit_creation_date              2020-11-30 
_audit_creation_method            'lammps2cif' 
_symmetry_space_group_name_H-M    'P1' 
_symmetry_Int_Tables_number       1 
_symmetry_cell_setting            triclinic 
loop_ 
_symmetry_equiv_pos_as_xyz 
  x,y,z 
_cell_length_a                    26.569477033855954 
_cell_length_b                    39.344885342539854 
_cell_length_c                    29.152179059606173 
_cell_angle_alpha                 81.68862101973473 
_cell_angle_beta                  103.48993774344284 
_cell_angle_gamma                 89.14529673346425 
loop_ 
_atom_site_label 
_atom_site_type_symbol 
_atom_site_fract_x 
_atom_site_fract_y 
_atom_site_fract_z 
_atom_site_charge 
Zn1        Zn  0.00762116  0.23443879  0.04451524     1.49720
Zn2        Zn  0.05975833  0.30315209  0.98458957     1.49360
Zn3        Zn  0.02338011  0.24008538  0.44733150     1.49110
Zn4        Zn  0.95948500  0.29942569  0.50149882     1.49480
O5          O  0.01465381  0.26519567  0.99271121    -1.84220
O6          O  0.04415150  0.27137813  0.08154243    -0.74850
O7          O  0.12378121  0.29181069  0.96647244    -0.74670
O8          O  0.00988163  0.19029436  0.46228637    -0.74190
O9          O  0.08201984  0.31521753  0.04755177    -0.74870
O10         O  0.03142770  0.18232735  0.04230087    -0.74470
O11         O  0.10705037  0.24120701  0.45273092    -0.75050
O12         O  0.89778801  0.30346742  0.44774423    -0.74440
O13         O  0.02539614  0.34713092  0.94742675    -0.75200
O14         O  0.95466379  0.26784494  0.43574204    -0.74590
O15         O  0.98088515  0.34662158  0.50229383    -0.75060
O16         O  0.92628689  0.28553858  0.55450957    -0.74960
O17         O  0.92886134  0.23264539  0.04153243    -0.74750
C18         C  0.06905940  0.29936632  0.08329150     0.77040
C19         C  0.13813438  0.26239658  0.96036300     0.77530
C20         C  0.01998251  0.17059646  0.50207590     0.76490
C21         C  0.91007810  0.28351831  0.42218140     0.76860
C22         C  0.00001878  0.36269331  0.97058217     0.78000
C23         C  0.90284182  0.25849248  0.54747734     0.77050
Zn24       Zn  0.02345005  0.20673294  0.23061430     1.49720
Zn25       Zn  0.93038944  0.26977628  0.22097977     1.49360
Zn26       Zn  0.94782672  0.19764629  0.29108732     1.49110
Zn27       Zn  0.03769930  0.26075955  0.29782996     1.49480
O28         O  0.98345366  0.23493844  0.26001444    -1.84220
O29         O  0.98635674  0.21697816  0.16182210    -0.74850
O30         O  0.85997638  0.26166857  0.23202541    -0.74670
O31         O  0.94903664  0.15195972  0.27170342    -0.74190
O32         O  0.92758488  0.25686534  0.15701290    -0.74870
O33         O  0.01892837  0.15880255  0.24390031    -0.74470
O34         O  0.87106862  0.21128619  0.27890386    -0.75050
O35         O  0.04361640  0.23533423  0.36392520    -0.74440
O36         O  0.94866070  0.31981606  0.23151505    -0.75200
O37         O  0.99739704  0.19068010  0.35536429    -0.74590
O38         O  0.02759778  0.31348825  0.27758695    -0.75060
O39         O  0.10784657  0.25306006  0.29278164    -0.74960
O40         O  0.09998094  0.20850359  0.25607955    -0.74750
C41         C  0.97379121  0.24847922  0.15730735     0.77040
C42         C  0.84196962  0.23703905  0.25549205     0.77530
C43         C  0.98569879  0.14007587  0.25704506     0.76490
C44         C  0.00073759  0.22153582  0.36207753     0.76860
C45         C  0.98942368  0.33307366  0.25279191     0.78000
C46         C  0.12833343  0.22932164  0.27783117     0.77050
Zn47       Zn  0.46387302  0.23852276  0.44416131     1.49720
Zn48       Zn  0.47595484  0.25822997  0.03449572     1.49360
Zn49       Zn  0.58260451  0.20897181  0.00938179     1.49110
Zn50       Zn  0.57399829  0.28829695  0.49577310     1.49480
O51         O  0.52617551  0.24909552  0.99606634    -1.84220
O52         O  0.38655128  0.24471745  0.44537096    -0.74850
O53         O  0.51039036  0.21112350  0.03825274    -0.74670
O54         O  0.55874177  0.16935955  0.97618413    -0.74190
O55         O  0.39698830  0.25078831  0.02029610    -0.74870
O56         O  0.47687814  0.18221535  0.45949236    -0.74470
O57         O  0.58631796  0.18822562  0.07679177    -0.75050
O58         O  0.65056146  0.27467397  0.51450462    -0.74440
O59         O  0.48058660  0.31328920  0.02741894    -0.75200
O60         O  0.65674426  0.22213999  0.00854346    -0.74590
O61         O  0.56550284  0.32102400  0.53947950    -0.75060
O62         O  0.55503038  0.31677406  0.43097242    -0.74960
O63         O  0.48665012  0.28953482  0.44184551    -0.74750
C64         C  0.36586542  0.24908365  0.98051207     0.77040
C65         C  0.54228509  0.20041878  0.07699621     0.77530
C66         C  0.51218173  0.16046168  0.96878314     0.76490
C67         C  0.67815377  0.24998980  0.01762245     0.76860
C68         C  0.51862571  0.33315220  0.03384945     0.78000
C69         C  0.51715748  0.29930892  0.41540147     0.77050
Zn70       Zn  0.53554999  0.25380300  0.29613869     1.49720
Zn71       Zn  0.43351394  0.19945420  0.25859953     1.49360
Zn72       Zn  0.41870778  0.28208213  0.22877800     1.49110
Zn73       Zn  0.51838642  0.22960665  0.21165712     1.49480
O74         O  0.47331595  0.24187070  0.25137064    -1.84220
O75         O  0.53167717  0.20070963  0.30125830    -0.74850
O76         O  0.36071066  0.21225910  0.25593143    -0.74670
O77         O  0.44001234  0.32293865  0.25845023    -0.74190
O78         O  0.47022993  0.17022813  0.32110298    -0.74870
O79         O  0.52361770  0.30912865  0.28500197    -0.74470
O80         O  0.34921852  0.26875684  0.23488362    -0.75050
O81         O  0.49138479  0.27900957  0.20345235    -0.74440
O82         O  0.42991832  0.16958123  0.21010160    -0.75200
O83         O  0.41581883  0.29895239  0.15993370    -0.74590
O84         O  0.51240472  0.17573617  0.21835716    -0.75060
O85         O  0.59485212  0.23151623  0.22615226    -0.74960
O86         O  0.60945466  0.25375422  0.29201571    -0.74750
C87         C  0.50830204  0.18864335  0.33253827     0.77040
C88         C  0.33218956  0.23972937  0.24689218     0.77530
C89         C  0.48600777  0.33204861  0.27151939     0.76490
C90         C  0.46076157  0.28649304  0.16335876     0.76860
C91         C  0.47452450  0.15608079  0.21575674     0.78000
C92         C  0.62603320  0.24213131  0.25996296     0.77050
C93         C  0.00276103  0.49939510  0.01145560     0.00470
C94         C  0.00730964  0.02562119  0.46872578     0.00470
C95         C  0.00173943  0.48074586  0.26892577     0.00470
C96         C  0.01015650  0.00304520  0.22455508     0.00470
C97         C  0.50058126  0.48376879  0.02219233     0.00470
C98         C  0.49727802  0.00773939  0.48235069     0.00470
C99         C  0.49884678  0.48154050  0.27222067     0.00470
C100        C  0.49489249  0.00582636  0.23206290     0.00470
C101        C  0.46515576  0.48019268  0.40080083    -0.01940
C102        C  0.49818703  0.99922130  0.42974063     0.07740
C103        C  0.53385018  0.01447359  0.40285727    -0.02060
C104        C  0.53257484  0.00975019  0.35404034    -0.02060
C105        C  0.49873632  0.49012965  0.32479699     0.07870
C106        C  0.46366789  0.47486064  0.35222543    -0.02260
Br107      Br  0.40953909  0.44693500  0.32363042    -0.00800
Br108      Br  0.40972538  0.46285394  0.42868775    -0.00880
Br109      Br  0.58808336  0.02744119  0.32652105    -0.00840
Br110      Br  0.58912146  0.04105613  0.43270887    -0.00820
C111        C  0.53812739  0.47421158  0.11717001    -0.01940
C112        C  0.50147468  0.49169124  0.07523429     0.07740
C113        C  0.45953050  0.01299034  0.08850448    -0.02060
C114        C  0.45720821  0.01560257  0.13714589    -0.02060
C115        C  0.49380921  0.99791411  0.17896293     0.07870
C116        C  0.53606148  0.47731922  0.16571214    -0.02260
Br117      Br  0.59256447  0.45637414  0.21698191    -0.00800
Br118      Br  0.59581618  0.44660647  0.11041723    -0.00880
Br119      Br  0.39933368  0.04286294  0.14430427    -0.00840
Br120      Br  0.40352290  0.03445529  0.03725644    -0.00820
C121        C  0.96899678  0.52933298  0.37573856    -0.01940
C122        C  0.00897557  0.01556909  0.41624883     0.07740
C123        C  0.04685444  0.99192469  0.40841001    -0.02060
C124        C  0.04383286  0.97928986  0.36317580    -0.02060
C125        C  0.00167136  0.49285451  0.32091204     0.07870
C126        C  0.96533471  0.51762138  0.32951899    -0.02260
Br127      Br  0.90366813  0.53244071  0.28073020    -0.00800
Br128      Br  0.92074523  0.56545539  0.37924181    -0.00880
Br129      Br  0.09347643  0.94293747  0.36408336    -0.00840
Br130      Br  0.11040331  0.98121609  0.45692515    -0.00820
C131        C  0.96922815  0.48061742  0.14095259    -0.01940
C132        C  0.01343813  0.99629909  0.17146938     0.07740
C133        C  0.05024238  0.01300539  0.14695767    -0.02060
C134        C  0.04792029  0.01378080  0.09630049    -0.02060
C135        C  0.00243119  0.50145201  0.06641560     0.07870
C136        C  0.96667182  0.48294703  0.09020981    -0.02260
Br137      Br  0.90953231  0.46109762  0.05396923    -0.00800
Br138      Br  0.91379232  0.45852106  0.16374916    -0.00880
Br139      Br  0.10489910  0.03228800  0.07166545    -0.00840
Br140      Br  0.10723749  0.03539140  0.18198549    -0.00820
C141        C  0.52293682  0.10154654  0.20906459    -0.01940
C142        C  0.48200463  0.11763901  0.22264269     0.07740
C143        C  0.44845853  0.09653573  0.24451072    -0.02060
C144        C  0.45251350  0.06039628  0.24811031    -0.02060
C145        C  0.49334490  0.04411665  0.23420746     0.07870
C146        C  0.52952945  0.06534210  0.21618242    -0.02260
Br147      Br  0.59059077  0.04577924  0.20257694    -0.00800
Br148      Br  0.56957345  0.12847232  0.17839678    -0.00880
Br149      Br  0.39597662  0.03474488  0.26448395    -0.00840
Br150      Br  0.39695361  0.11603207  0.27193472    -0.00820
C151        C  0.53546979  0.38408407  0.29894179    -0.01940
C152        C  0.49372746  0.37029596  0.26876669     0.07740
C153        C  0.45697275  0.39394034  0.23551114    -0.02060
C154        C  0.45805552  0.42964462  0.23690159    -0.02060
C155        C  0.49848155  0.44334933  0.26882524     0.07870
C156        C  0.53736520  0.41995301  0.29971754    -0.02260
Br157      Br  0.59547560  0.43628396  0.34289833    -0.00800
Br158      Br  0.59234703  0.35489784  0.33823267    -0.00880
Br159      Br  0.39839639  0.45826728  0.20003920    -0.00840
Br160      Br  0.40605298  0.37876431  0.18434406    -0.00820
C161        C  0.54042243  0.09888037  0.00987804    -0.01940
C162        C  0.50497428  0.12023308  0.47625606     0.07740
C163        C  0.46138382  0.10541039  0.45007297    -0.02060
C164        C  0.45825093  0.06920713  0.45318001    -0.02060
C165        C  0.49720363  0.04630509  0.48495163     0.07870
C166        C  0.53723770  0.06267304  0.01325910    -0.02260
Br167      Br  0.59516066  0.03407293  0.05363965    -0.00800
Br168      Br  0.59592411  0.11576877  0.05520171    -0.00880
Br169      Br  0.39857465  0.05164959  0.41351262    -0.00840
Br170      Br  0.40471967  0.13378951  0.40925432    -0.00820
C171        C  0.47052963  0.38786863  0.04096885    -0.01940
C172        C  0.51176416  0.37180470  0.02800919     0.07740
C173        C  0.55051695  0.39512453  0.50787647    -0.02060
C174        C  0.54698311  0.43112970  0.50608920    -0.02060
C175        C  0.50213003  0.44547106  0.01973649     0.07870
C176        C  0.46518937  0.42409742  0.03627611    -0.02260
Br177      Br  0.40487214  0.44354949  0.05122288    -0.00800
Br178      Br  0.42298036  0.36048829  0.06907202    -0.00880
Br179      Br  0.60400633  0.45710344  0.49141795    -0.00840
Br180      Br  0.60417529  0.37612035  0.48284388    -0.00820
C181        C  0.55914207  0.22197652  0.38587797    -0.01940
C182        C  0.50975944  0.21001759  0.36842645     0.07740
C183        C  0.46543441  0.23201811  0.35935980    -0.02060
C184        C  0.47028981  0.26699518  0.35942127    -0.02060
C185        C  0.51897640  0.27855400  0.37933034     0.07870
C186        C  0.56389284  0.25689988  0.38814954    -0.02260
Br187      Br  0.63115854  0.27546732  0.39631168    -0.00800
Br188      Br  0.62030090  0.19199951  0.39454719    -0.00880
Br189      Br  0.40904932  0.29707914  0.34917746    -0.00840
Br190      Br  0.39874868  0.21388251  0.35548521    -0.00820
C191        C  0.55659439  0.24355968  0.12481740    -0.01940
C192        C  0.53129924  0.21326850  0.11639421     0.07740
C193        C  0.47895093  0.20995384  0.11789396    -0.02060
C194        C  0.45021886  0.23840886  0.12273051    -0.02060
C195        C  0.47481078  0.26949484  0.12847490     0.07870
C196        C  0.52786544  0.27234051  0.12852555    -0.02260
Br197      Br  0.56424580  0.31241724  0.14835743    -0.00800
Br198      Br  0.62955807  0.24674455  0.12628785    -0.00880
Br199      Br  0.37955160  0.23280747  0.12847066    -0.00840
Br200      Br  0.44356237  0.16940458  0.09939426    -0.00820
C201        C  0.96377051  0.06111606  0.20239059    -0.01940
C202        C  0.00772259  0.03995279  0.22885769     0.07740
C203        C  0.04548886  0.05318333  0.26394882    -0.02060
C204        C  0.03674977  0.08577129  0.27481795    -0.02060
C205        C  0.99010713  0.10449914  0.25221625     0.07870
C206        C  0.95363603  0.09237150  0.21643605    -0.02260
Br207      Br  0.88853559  0.11810932  0.18818719    -0.00800
Br208      Br  0.91336690  0.04802794  0.14970398    -0.00880
Br209      Br  0.08845095  0.10507351  0.32094535    -0.00840
Br210      Br  0.10965806  0.02774450  0.29753753    -0.00820
C211        C  0.95510064  0.42452481  0.26820083    -0.01940
C212        C  0.00068459  0.44232471  0.26611545     0.07740
C213        C  0.04226721  0.42387709  0.25592094    -0.02060
C214        C  0.03929059  0.38826928  0.25213574    -0.02060
C215        C  0.99221204  0.37158426  0.25140508     0.07870
C216        C  0.94872952  0.39188802  0.25327162    -0.02260
Br217      Br  0.87936198  0.37930247  0.22551999    -0.00800
Br218      Br  0.89793702  0.44546789  0.28579298    -0.00880
Br219      Br  0.09861948  0.36351064  0.24295434    -0.00840
Br220      Br  0.10487448  0.44628332  0.24940886    -0.00820
C221        C  0.76074497  0.27012341  0.25792678    -0.01940
C222        C  0.78638179  0.23852062  0.25646272     0.07740
C223        C  0.75861284  0.20808317  0.25698956    -0.02060
C224        C  0.70667997  0.20921384  0.26015927    -0.02060
C225        C  0.68157900  0.24072441  0.26134654     0.07870
C226        C  0.70858426  0.27109534  0.26039668    -0.02260
Br227      Br  0.67327920  0.31443769  0.26046100    -0.00800
Br228      Br  0.79566267  0.31267879  0.25732213    -0.00880
Br229      Br  0.67025880  0.16718577  0.26465190    -0.00840
Br230      Br  0.78950516  0.16487721  0.24985725    -0.00820
C231        C  0.20712998  0.20188329  0.26243813    -0.01940
C232        C  0.18461500  0.22834837  0.28047773     0.07740
C233        C  0.21338728  0.25745423  0.29121392    -0.02060
C234        C  0.25902651  0.26291810  0.27571633    -0.02060
C235        C  0.27971884  0.23740884  0.25476764     0.07830
C236        C  0.25309286  0.20716702  0.24751409    -0.02260
Br237      Br  0.27489074  0.17492563  0.21064473    -0.00800
Br238      Br  0.17781507  0.15721962  0.25993161    -0.00880
Br239      Br  0.28728353  0.30788786  0.27760724    -0.00840
Br240      Br  0.19248073  0.29065897  0.32740481    -0.00820
C241        C  0.05083641  0.08406838  0.46702301    -0.01940
C242        C  0.00947071  0.06361204  0.47624531     0.07740
C243        C  0.97628303  0.07616137  0.00038609    -0.02060
C244        C  0.98237209  0.10966736  0.01352315    -0.02060
C245        C  0.01999221  0.13253223  0.50005717     0.07870
C246        C  0.05586225  0.11779197  0.47891995    -0.02260
Br247      Br  0.11322934  0.14430625  0.46692633    -0.00800
Br248      Br  0.10357174  0.06653842  0.44037636    -0.00880
Br249      Br  0.93421469  0.12832245  0.04455573    -0.00840
Br250      Br  0.91296294  0.05428941  0.00508545    -0.00820
C251        C  0.05049643  0.41105768  0.50291106    -0.01940
C252        C  0.00306352  0.39940426  0.97026490     0.07740
C253        C  0.95790280  0.42080295  0.95400950    -0.02060
C254        C  0.95787110  0.45413610  0.96542062    -0.02060
C255        C  0.00060164  0.46397078  0.99949415     0.07870
C256        C  0.04632502  0.44151242  0.52120884    -0.02260
Br257      Br  0.10213544  0.45116876  0.57258591    -0.00800
Br258      Br  0.11606987  0.38505218  0.51912045    -0.00880
Br259      Br  0.89685961  0.48418878  0.93717887    -0.00840
Br260      Br  0.89546939  0.40383380  0.91827097    -0.00820
C261        C  0.75820607  0.28400948  0.50900225    -0.01940
C262        C  0.73601368  0.25221741  0.02762060     0.07740
C263        C  0.76942113  0.22350719  0.05182693    -0.02060
C264        C  0.82383643  0.22575953  0.06071502    -0.02060
C265        C  0.84621326  0.25675378  0.04696506     0.07870
C266        C  0.81229802  0.28697753  0.52227546    -0.02260
Br267      Br  0.83850810  0.33233846  0.51097812    -0.00800
Br268      Br  0.71552508  0.32360043  0.47264206    -0.00880
Br269      Br  0.86785081  0.18695834  0.09595143    -0.00840
Br270      Br  0.74169183  0.18127052  0.07611475    -0.00820
C271        C  0.27605673  0.22930422  0.44936638    -0.01940
C272        C  0.30733363  0.25059648  0.97566648     0.07740
C273        C  0.28514395  0.27194394  0.00162763    -0.02060
C274        C  0.23142892  0.27258187  0.99976993    -0.02060
C275        C  0.19628181  0.25551749  0.96691520     0.07870
C276        C  0.22133219  0.23320415  0.44425311    -0.02260
Br277      Br  0.17542359  0.20855184  0.40076559    -0.00800
Br278      Br  0.30129311  0.19664138  0.41596680    -0.00880
Br279      Br  0.20800766  0.29439382  0.04715099    -0.00840
Br280      Br  0.32676366  0.30348404  0.03710594    -0.00820
C281        C  0.90775184  0.22725654  0.36464473    -0.01940
C282        C  0.95274997  0.24290760  0.35305673     0.07740
C283        C  0.95324804  0.27976998  0.34378723    -0.02060
C284        C  0.90748112  0.29844142  0.34362813    -0.02060
C285        C  0.87896189  0.28237426  0.37412628     0.07870
C286        C  0.86718774  0.24879899  0.36915508    -0.02260
Br287      Br  0.80764849  0.23158390  0.38989538    -0.00800
Br288      Br  0.90339022  0.17821566  0.38370188    -0.00880
Br289      Br  0.90625723  0.34739182  0.34035021    -0.00840
Br290      Br  0.01597515  0.30269803  0.36988844    -0.00820
C291        C  0.00009735  0.30942238  0.14992152    -0.01940
C292        C  0.01454643  0.27344110  0.16561499     0.07740
C293        C  0.06879943  0.26243454  0.17416553    -0.02060
C294        C  0.10316689  0.28819218  0.16540652    -0.02060
C295        C  0.08102442  0.31396895  0.12845118     0.07870
C296        C  0.03732489  0.33050850  0.13529960    -0.02260
Br297      Br  0.02197974  0.37809303  0.10908042    -0.00800
Br298      Br  0.92925851  0.32903710  0.13098171    -0.00880
Br299      Br  0.17516595  0.27868458  0.17019492    -0.00840
Br300      Br  0.09065771  0.21806327  0.15936919    -0.00820
Zn301      Zn  0.00706537  0.23511882  0.54361715     1.49720
Zn302      Zn  0.06372963  0.30348062  0.48800295     1.49360
Zn303      Zn  0.02037052  0.23784694  0.94750503     1.49110
Zn304      Zn  0.95656268  0.29842768  0.00062411     1.49480
O305        O  0.01734478  0.26604519  0.49356685    -1.84220
O306        O  0.04249037  0.27138685  0.58156785    -0.74850
O307        O  0.12909123  0.29169171  0.47224109    -0.74670
O308        O  0.00825582  0.18781250  0.96358336    -0.74190
O309        O  0.08372120  0.31501082  0.55137573    -0.74870
O310        O  0.03033628  0.18350858  0.54118206    -0.74470
O311        O  0.10391531  0.23980171  0.95197572    -0.75050
O312        O  0.89347476  0.30032609  0.94824320    -0.74440
O313        O  0.03011203  0.34744752  0.45054664    -0.75200
O314        O  0.95109896  0.26503302  0.93673777    -0.74590
O315        O  0.97650130  0.34637097  0.99932553    -0.75060
O316        O  0.92664275  0.28497447  0.05571485    -0.74960
O317        O  0.92824142  0.23360251  0.53873309    -0.74750
C318        C  0.06810558  0.29891068  0.58545482     0.77040
C319        C  0.14237781  0.26266990  0.46391741     0.77530
C320        C  0.02049123  0.16862050  0.00377054     0.76490
C321        C  0.90615098  0.28021016  0.92302129     0.76860
C322        C  0.00449193  0.36292272  0.47363619     0.78000
C323        C  0.90334948  0.25773060  0.04975819     0.77050
Zn324      Zn  0.02453061  0.20761618  0.73476336     1.49720
Zn325      Zn  0.92963691  0.27094667  0.72134587     1.49360
Zn326      Zn  0.94484509  0.19966192  0.78845091     1.49110
Zn327      Zn  0.03835125  0.26095601  0.80134622     1.49480
O328        O  0.98349040  0.23703057  0.76151798    -1.84220
O329        O  0.98232502  0.21386226  0.66708142    -0.74850
O330        O  0.85841826  0.26520891  0.73242985    -0.74670
O331        O  0.94483874  0.15618834  0.76358211    -0.74190
O332        O  0.92391423  0.25485397  0.65814983    -0.74870
O333        O  0.02480462  0.15972021  0.75624315    -0.74470
O334        O  0.86729086  0.21379565  0.77617780    -0.75050
O335        O  0.04143109  0.23287972  0.86562426    -0.74440
O336        O  0.95055652  0.32054557  0.73114511    -0.75200
O337        O  0.99456658  0.18884942  0.85285688    -0.74590
O338        O  0.02759600  0.31379235  0.78129150    -0.75060
O339        O  0.11004408  0.25392837  0.79764786    -0.74960
O340        O  0.10155886  0.21266868  0.75489261    -0.74750
C341        C  0.96986545  0.24563412  0.65895321     0.77040
C342        C  0.83891484  0.24020413  0.75371396     0.77530
C343        C  0.98607458  0.14242760  0.75877376     0.76490
C344        C  0.99828614  0.21909867  0.86216557     0.76860
C345        C  0.99054913  0.33344796  0.75443768     0.78000
C346        C  0.13025477  0.23232463  0.77871698     0.77050
Zn347      Zn  0.46424062  0.24068443  0.94699485     1.49720
Zn348      Zn  0.48105206  0.26343985  0.53130439     1.49360
Zn349      Zn  0.58633061  0.20898898  0.49913153     1.49110
Zn350      Zn  0.57396847  0.28933031  0.00013121     1.49480
O351        O  0.52577564  0.24752534  0.49053391    -1.84220
O352        O  0.38527569  0.24710212  0.94512396    -0.74850
O353        O  0.53939628  0.22956766  0.54123661    -0.74670
O354        O  0.56029668  0.16734607  0.47212527    -0.74190
O355        O  0.40347533  0.24943837  0.52065816    -0.74870
O356        O  0.47496992  0.18390104  0.95851087    -0.74470
O357        O  0.60237428  0.19076814  0.56908479    -0.75050
O358        O  0.65043767  0.27639869  0.01828304    -0.74440
O359        O  0.48197591  0.31679518  0.52221976    -0.75200
O360        O  0.65768618  0.22352558  0.49313791    -0.74590
O361        O  0.56395402  0.31988487  0.04388195    -0.75060
O362        O  0.55509427  0.31941488  0.93657126    -0.74960
O363        O  0.48590587  0.29181095  0.94345040    -0.74750
C364        C  0.36999633  0.24675050  0.48231957     0.77040
C365        C  0.56609102  0.20893811  0.57543877     0.77530
C366        C  0.51381026  0.15867679  0.46821341     0.76490
C367        C  0.67851856  0.24989599  0.50869448     0.76860
C368        C  0.52084776  0.33538826  0.53020337     0.78000
C369        C  0.51782335  0.30237763  0.91880480     0.77050
Zn370      Zn  0.54013774  0.25552237  0.80030939     1.49720
Zn371      Zn  0.43809485  0.20013695  0.76647396     1.49360
Zn372      Zn  0.42404878  0.28094056  0.72465390     1.49110
Zn373      Zn  0.50887952  0.21686583  0.72097751     1.49480
O374        O  0.47912231  0.24366419  0.75772446    -1.84220
O375        O  0.53664812  0.20213273  0.81076568    -0.74850
O376        O  0.36453871  0.21404185  0.76076871    -0.74670
O377        O  0.44724147  0.32469251  0.74404816    -0.74190
O378        O  0.47377686  0.17300237  0.83061255    -0.74870
O379        O  0.52627518  0.31076501  0.78836636    -0.74470
O380        O  0.35440116  0.27027147  0.73607992    -0.75050
O381        O  0.43534424  0.23320843  0.68792356    -0.74440
O382        O  0.43392436  0.16506500  0.72188866    -0.75200
O383        O  0.41705639  0.28598976  0.65377338    -0.74590
O384        O  0.51718917  0.16580175  0.74096081    -0.75060
O385        O  0.58513424  0.23057241  0.72409690    -0.74960
O386        O  0.60879493  0.25568189  0.78781235    -0.74750
C387        C  0.51208289  0.19134519  0.84166097     0.77040
C388        C  0.33645945  0.24181267  0.74968704     0.77530
C389        C  0.49048997  0.33380795  0.76635929     0.76490
C390        C  0.43426340  0.25607742  0.65331697     0.76860
C391        C  0.47733096  0.14896595  0.73092050     0.78000
C392        C  0.61992215  0.24365554  0.75351986     0.77050
C393        C  0.00395426  0.49991610  0.51170843     0.00470
C394        C  0.01027904  0.02301634  0.97041410     0.00470
C395        C  0.00367950  0.48073239  0.77003949     0.00470
C396        C  0.00497148  0.00495463  0.72343833     0.00470
C397        C  0.50389816  0.48531947  0.52221429     0.00470
C398        C  0.49614161  0.00920572  0.98145541     0.00470
C399        C  0.50055159  0.48324636  0.77201429     0.00470
C400        C  0.49193153  0.00131804  0.73314919     0.00470
C401        C  0.46435284  0.48005348  0.89997487    -0.01940
C402        C  0.49651438  0.99989484  0.92932695     0.07740
C403        C  0.53198913  0.01450219  0.90191928    -0.02060
C404        C  0.53111377  0.00812158  0.85392228    -0.02060
C405        C  0.49920658  0.49141992  0.82463606     0.07870
C406        C  0.46363000  0.47564053  0.85116492    -0.02260
Br407      Br  0.40962574  0.44835728  0.82087650    -0.00800
Br408      Br  0.40870153  0.46175641  0.92679059    -0.00880
Br409      Br  0.58724439  0.02459560  0.82642948    -0.00840
Br410      Br  0.58615228  0.04267960  0.92989183    -0.00820
C411        C  0.54155091  0.47613049  0.61718800    -0.01940
C412        C  0.50498078  0.49355399  0.57515836     0.07740
C413        C  0.45860234  0.01022092  0.58941004    -0.02060
C414        C  0.45516739  0.01174285  0.63808773    -0.02060
C415        C  0.49125344  0.99360084  0.67994723     0.07870
C416        C  0.53920090  0.47915205  0.66572313    -0.02260
Br417      Br  0.59516499  0.45771290  0.71715940    -0.00800
Br418      Br  0.59930002  0.44855372  0.61047714    -0.00880
Br419      Br  0.39645586  0.03820933  0.64512164    -0.00840
Br420      Br  0.40364157  0.03277822  0.53807496    -0.00820
C421        C  0.97013195  0.52971015  0.87638444    -0.01940
C422        C  0.01017272  0.01407301  0.91701966     0.07740
C423        C  0.04706940  0.99065211  0.90716930    -0.02060
C424        C  0.04197022  0.97870389  0.86120662    -0.02060
C425        C  0.00316273  0.49290076  0.82201246     0.07870
C426        C  0.96660717  0.51767841  0.83034982    -0.02260
Br427      Br  0.90464323  0.53184053  0.78153862    -0.00800
Br428      Br  0.92178197  0.56583147  0.87945947    -0.00880
Br429      Br  0.09042217  0.94241991  0.85907087    -0.00840
Br430      Br  0.11198301  0.97943322  0.95363581    -0.00820
C431        C  0.97180308  0.48122462  0.64213763    -0.01940
C432        C  0.00749318  0.99949973  0.66968607     0.07740
C433        C  0.04343553  0.01731285  0.64511446    -0.02060
C434        C  0.04135398  0.01831882  0.59455841    -0.02060
C435        C  0.00380403  0.50236793  0.56679611     0.07870
C436        C  0.96891064  0.48337559  0.59129896    -0.02260
Br437      Br  0.91218709  0.46071868  0.55591512    -0.00800
Br438      Br  0.91586606  0.46016875  0.66537667    -0.00880
Br439      Br  0.09855809  0.03712038  0.57053088    -0.00840
Br440      Br  0.09914187  0.04105532  0.67962141    -0.00820
C441        C  0.52303305  0.09592056  0.71878411    -0.01940
C442        C  0.48161939  0.11130631  0.73251965     0.07740
C443        C  0.44555488  0.09028926  0.75007791    -0.02060
C444        C  0.44828853  0.05459857  0.75017900    -0.02060
C445        C  0.48938330  0.03905763  0.73566554     0.07870
C446        C  0.52687550  0.06021116  0.72021689    -0.02260
Br447      Br  0.58661081  0.04113591  0.70348076    -0.00800
Br448      Br  0.57607195  0.12289031  0.69807983    -0.00880
Br449      Br  0.39070110  0.02887840  0.76378309    -0.00840
Br450      Br  0.39388275  0.10955427  0.77748650    -0.00820
C451        C  0.53752075  0.38584725  0.79762705    -0.01940
C452        C  0.49714217  0.37222986  0.76543097     0.07740
C453        C  0.46102566  0.39630420  0.73186097    -0.02060
C454        C  0.46095620  0.43174777  0.73508040    -0.02060
C455        C  0.50043385  0.44515206  0.76817849     0.07870
C456        C  0.53893482  0.42165422  0.79925744    -0.02260
Br457      Br  0.59623366  0.43798383  0.84345566    -0.00800
Br458      Br  0.59395446  0.35682130  0.83826255    -0.00880
Br459      Br  0.40101380  0.46038554  0.69866856    -0.00840
Br460      Br  0.41272229  0.38282487  0.67744906    -0.00820
C461        C  0.54252795  0.09731566  0.51010017    -0.01940
C462        C  0.50362425  0.12192883  0.97538317     0.07740
C463        C  0.46088936  0.10719464  0.94778775    -0.02060
C464        C  0.45754395  0.07093044  0.95112302    -0.02060
C465        C  0.49611387  0.04792292  0.98340749     0.07870
C466        C  0.53860135  0.06108212  0.51450833    -0.02260
Br467      Br  0.59558210  0.03232651  0.55602129    -0.00800
Br468      Br  0.60040767  0.11460087  0.55252093    -0.00880
Br469      Br  0.39807649  0.05348373  0.91116539    -0.00840
Br470      Br  0.40590683  0.13592999  0.90462812    -0.00820
C471        C  0.47359306  0.38951408  0.53956877    -0.01940
C472        C  0.51486733  0.37376200  0.52615738     0.07740
C473        C  0.54790016  0.39318467  0.01008017    -0.02060
C474        C  0.54362645  0.42934929  0.00672457    -0.02060
C475        C  0.50590480  0.44705272  0.52006761     0.07870
C476        C  0.46899312  0.42562045  0.53650565    -0.02260
Br477      Br  0.40952234  0.44482987  0.55317899    -0.00800
Br478      Br  0.42310209  0.36193301  0.56346098    -0.00880
Br479      Br  0.60045248  0.45555160  0.99175534    -0.00840
Br480      Br  0.60527310  0.37421176  0.99001691    -0.00820
C481        C  0.56200311  0.22607489  0.89297713    -0.01940
C482        C  0.51258030  0.21423440  0.87525424     0.07740
C483        C  0.46859568  0.23683106  0.86280997    -0.02060
C484        C  0.47437434  0.27188597  0.85994429    -0.02060
C485        C  0.52229519  0.28307069  0.88204354     0.07870
C486        C  0.56705373  0.26111398  0.89309480    -0.02260
Br487      Br  0.63464592  0.27909793  0.90263521    -0.00800
Br488      Br  0.62321325  0.19562144  0.90441725    -0.00880
Br489      Br  0.41466329  0.30368390  0.84288800    -0.00840
Br490      Br  0.40121865  0.21970276  0.85871245    -0.00820
C491        C  0.55883562  0.24185719  0.63075574    -0.01940
C492        C  0.55175540  0.20873175  0.61846951     0.07740
C493        C  0.50385907  0.19347197  0.61500769    -0.02060
C494        C  0.46061359  0.21416849  0.61323836    -0.02060
C495        C  0.46694800  0.24785636  0.62418276     0.07870
C496        C  0.51601008  0.26194529  0.63269462    -0.02260
Br497      Br  0.52635534  0.30649434  0.65297484    -0.00800
Br498      Br  0.62484432  0.26240615  0.63161185    -0.00880
Br499      Br  0.39272155  0.19472820  0.60371976    -0.00840
Br500      Br  0.49296555  0.14978569  0.59207954    -0.00820
C501        C  0.95925599  0.06301536  0.70406035    -0.01940
C502        C  0.00315973  0.04151911  0.72931319     0.07740
C503        C  0.04223227  0.05412947  0.76382983    -0.02060
C504        C  0.03551692  0.08693535  0.77485541    -0.02060
C505        C  0.98950388  0.10679541  0.75253471     0.07870
C506        C  0.95110383  0.09470467  0.71784539    -0.02260
Br507      Br  0.88587055  0.12059099  0.69017431    -0.00800
Br508      Br  0.90602718  0.04922862  0.65390335    -0.00880
Br509      Br  0.08929858  0.10420413  0.82159881    -0.00840
Br510      Br  0.10608214  0.02755700  0.79573031    -0.00820
C511        C  0.95674982  0.42469014  0.76975105    -0.01940
C512        C  0.00229294  0.44241288  0.76717732     0.07740
C513        C  0.04371660  0.42390750  0.75680518    -0.02060
C514        C  0.04051417  0.38833860  0.75310338    -0.02060
C515        C  0.99349122  0.37180671  0.75284208     0.07870
C516        C  0.95019293  0.39203381  0.75513660    -0.02260
Br517      Br  0.88074876  0.37936265  0.72802135    -0.00800
Br518      Br  0.89997755  0.44545735  0.78803878    -0.00880
Br519      Br  0.09919224  0.36332473  0.74324252    -0.00840
Br520      Br  0.10643308  0.44608321  0.75002986    -0.00820
C521        C  0.75533399  0.27304679  0.75229157    -0.01940
C522        C  0.78222758  0.24163925  0.75194854     0.07740
C523        C  0.75423643  0.21134047  0.74981565    -0.02060
C524        C  0.70156802  0.21214913  0.75092713    -0.02060
C525        C  0.67472099  0.24345375  0.74999088     0.07870
C526        C  0.70181472  0.27393868  0.75057638    -0.02260
Br527      Br  0.66531245  0.31718226  0.74890452    -0.00800
Br528      Br  0.79082699  0.31514979  0.75749548    -0.00880
Br529      Br  0.66805225  0.16957950  0.75956206    -0.00840
Br530      Br  0.78618790  0.16852229  0.74265195    -0.00820
C531        C  0.20948619  0.20529125  0.76301144    -0.01940
C532        C  0.18655358  0.23202272  0.78028377     0.07740
C533        C  0.21513512  0.26139632  0.79013234    -0.02060
C534        C  0.26148928  0.26638866  0.77541015    -0.02060
C535        C  0.28310620  0.24027763  0.75620472     0.07830
C536        C  0.25617478  0.21011572  0.74904215    -0.02260
Br537      Br  0.27877128  0.17735348  0.71332643    -0.00800
Br538      Br  0.17971927  0.16078299  0.76049188    -0.00880
Br539      Br  0.29029856  0.31114983  0.77650850    -0.00840
Br540      Br  0.19315591  0.29542950  0.82435785    -0.00820
C541        C  0.05289555  0.08199904  0.96873403    -0.01940
C542        C  0.01271360  0.06089092  0.97928977     0.07740
C543        C  0.97196392  0.07943131  0.49552111    -0.02060
C544        C  0.97793586  0.11305238  0.50807346    -0.02060
C545        C  0.02228137  0.13024668  0.00272814     0.07870
C546        C  0.05702098  0.11604539  0.97980121    -0.02260
Br547      Br  0.11156622  0.14378288  0.96398376    -0.00800
Br548      Br  0.10491919  0.06501895  0.94076574    -0.00880
Br549      Br  0.92654147  0.13355548  0.53384794    -0.00840
Br550      Br  0.90827628  0.05764462  0.49951289    -0.00820
C551        C  0.04732407  0.41063399  0.99942917    -0.01940
C552        C  0.00690001  0.39955844  0.47316588     0.07740
C553        C  0.96131470  0.42050798  0.45630763    -0.02060
C554        C  0.96026711  0.45385680  0.46728408    -0.02060
C555        C  0.00267231  0.46431384  0.50098273     0.07870
C556        C  0.04385562  0.44069793  0.01886647    -0.02260
Br557      Br  0.09969989  0.44880775  0.07120896    -0.00800
Br558      Br  0.11290904  0.38491900  0.01314837    -0.00880
Br559      Br  0.89843669  0.48322970  0.43893469    -0.00840
Br560      Br  0.89940128  0.40284120  0.42079837    -0.00820
C561        C  0.75854469  0.28380222  0.01562046    -0.01940
C562        C  0.73596902  0.25233635  0.52017878     0.07740
C563        C  0.76885633  0.22387842  0.54577483    -0.02060
C564        C  0.82319516  0.22647264  0.55700657    -0.02060
C565        C  0.84564581  0.25753541  0.54368547     0.07870
C566        C  0.81283546  0.28636894  0.02679622    -0.02260
Br567      Br  0.83944182  0.33152471  0.01380840    -0.00800
Br568      Br  0.71652258  0.32423432  0.98111812    -0.00880
Br569      Br  0.86665040  0.18834901  0.59517512    -0.00840
Br570      Br  0.73986592  0.18172627  0.56848715    -0.00820
C571        C  0.27291805  0.23074199  0.94629892    -0.01940
C572        C  0.31171940  0.24758075  0.48024677     0.07740
C573        C  0.29058892  0.26756222  0.50867118    -0.02060
C574        C  0.23650345  0.26974788  0.50566531    -0.02060
C575        C  0.20045431  0.25468188  0.47092868     0.07870
C576        C  0.21810659  0.23375557  0.94117347    -0.02260
Br577      Br  0.17353853  0.20758449  0.89907597    -0.00800
Br578      Br  0.30017020  0.19765050  0.91473968    -0.00880
Br579      Br  0.21334437  0.29112206  0.55358031    -0.00840
Br580      Br  0.33444318  0.29442916  0.55060016    -0.00820
C581        C  0.90532636  0.22430665  0.86457361    -0.01940
C582        C  0.95037378  0.24034919  0.85386756     0.07740
C583        C  0.95054411  0.27717341  0.84506305    -0.02060
C584        C  0.90448186  0.29557794  0.84469136    -0.02060
C585        C  0.87564752  0.27909820  0.87471147     0.07870
C586        C  0.86445847  0.24548617  0.86925421    -0.02260
Br587      Br  0.80438692  0.22766627  0.88830301    -0.00800
Br588      Br  0.90083718  0.17503964  0.88109471    -0.00880
Br589      Br  0.90316574  0.34455304  0.84165324    -0.00840
Br590      Br  0.01288444  0.29999245  0.87197018    -0.00820
C591        C  0.99650839  0.30677291  0.65061622    -0.01940
C592        C  0.01063591  0.27067134  0.66554730     0.07740
C593        C  0.06448018  0.25935778  0.67369924    -0.02060
C594        C  0.09981976  0.28492994  0.66686627    -0.02060
C595        C  0.07862438  0.31199938  0.63151653     0.07870
C596        C  0.03439576  0.32818293  0.63790139    -0.02260
Br597      Br  0.01929767  0.37594610  0.61207598    -0.00800
Br598      Br  0.92560086  0.32653144  0.63112381    -0.00880
Br599      Br  0.17115758  0.27428028  0.66979787    -0.00840
Br600      Br  0.08444455  0.21487097  0.65768239    -0.00820
Zn601      Zn  0.99765666  0.74054688  0.04506407     1.49720
Zn602      Zn  0.05906262  0.80230412  0.98494704     1.49360
Zn603      Zn  0.01694349  0.73908198  0.44532906     1.49110
Zn604      Zn  0.95110998  0.80106856  0.49416020     1.49480
O605        O  0.01234344  0.76572894  0.99131832    -1.84220
O606        O  0.01387280  0.78638067  0.07519761    -0.74850
O607        O  0.12675670  0.78742159  0.97855925    -0.74670
O608        O  0.00450836  0.68959799  0.46289143    -0.74190
O609        O  0.06787094  0.82008825  0.04319069    -0.74870
O610        O  0.01961846  0.68574249  0.04817239    -0.74470
O611        O  0.10088062  0.74034858  0.45187975    -0.75050
O612        O  0.88820137  0.80117999  0.44187738    -0.74440
O613        O  0.03165457  0.84585514  0.94063485    -0.75200
O614        O  0.94702076  0.76548502  0.43332457    -0.74590
O615        O  0.97112024  0.84891070  0.49109783    -0.75060
O616        O  0.92062866  0.78901665  0.54947092    -0.74960
O617        O  0.91871483  0.73872147  0.03435099    -0.74750
C618        C  0.03568264  0.81542477  0.06875372     0.77040
C619        C  0.14042974  0.75871308  0.96956116     0.77530
C620        C  0.01551793  0.67112542  0.50358051     0.76490
C621        C  0.90153759  0.77977063  0.41868455     0.76860
C622        C  0.99999129  0.86301754  0.95600866     0.78000
C623        C  0.89739839  0.76163980  0.54432032     0.77050
Zn624      Zn  0.02664923  0.71338328  0.21765897     1.49720
Zn625      Zn  0.93806165  0.76935712  0.22835825     1.49360
Zn626      Zn  0.95476258  0.69666718  0.28779084     1.49110
Zn627      Zn  0.04549212  0.75623755  0.30158153     1.49480
O628        O  0.99096084  0.73397172  0.26033295    -1.84220
O629        O  0.01662424  0.74652822  0.15900601    -0.74850
O630        O  0.86712612  0.76110049  0.23652372    -0.74670
O631        O  0.96541981  0.65418867  0.26555548    -0.74190
O632        O  0.93916259  0.75788799  0.16732127    -0.74870
O633        O  0.00490496  0.66769419  0.20636049    -0.74470
O634        O  0.87605296  0.70786102  0.27411402    -0.75050
O635        O  0.04093088  0.73475717  0.36664070    -0.74440
O636        O  0.95943559  0.81831887  0.23828797    -0.75200
O637        O  0.99875574  0.68906791  0.35356918    -0.74590
O638        O  0.03989359  0.81046759  0.28183147    -0.75060
O639        O  0.11492414  0.73893679  0.30076443    -0.74960
O640        O  0.10292949  0.70738292  0.24322745    -0.74750
C641        C  0.98189810  0.76821060  0.16084589     0.77040
C642        C  0.84748376  0.73489584  0.25468824     0.77530
C643        C  0.98558281  0.64622757  0.23323366     0.76490
C644        C  0.99893394  0.71953795  0.36194618     0.76860
C645        C  0.00146255  0.83087710  0.25836545     0.78000
C646        C  0.13305746  0.72056470  0.27569351     0.77050
Zn647      Zn  0.46026236  0.73915237  0.44691021     1.49720
Zn648      Zn  0.47487821  0.75826808  0.03627266     1.49360
Zn649      Zn  0.57895819  0.70910930  0.00789687     1.49110
Zn650      Zn  0.56833698  0.78935431  0.49770947     1.49480
O651        O  0.52121029  0.74835222  0.99504224    -1.84220
O652        O  0.38184083  0.74428295  0.44541753    -0.74850
O653        O  0.51103115  0.71173871  0.04077962    -0.74670
O654        O  0.55500867  0.66804409  0.97913000    -0.74190
O655        O  0.39749541  0.74947337  0.02475706    -0.74870
O656        O  0.47273964  0.68287469  0.45836501    -0.74470
O657        O  0.58837925  0.68990187  0.07658490    -0.75050
O658        O  0.64490981  0.77750893  0.51519763    -0.74440
O659        O  0.47652570  0.81365634  0.02795304    -0.75200
O660        O  0.65055054  0.72328232  0.00297539    -0.74590
O661        O  0.55975687  0.81950757  0.54259045    -0.75060
O662        O  0.54712800  0.81844145  0.43302630    -0.74960
O663        O  0.47926310  0.79064517  0.44324874    -0.74750
C664        C  0.36527347  0.74552749  0.98657020     0.77040
C665        C  0.54489116  0.70185723  0.07858565     0.77530
C666        C  0.50868223  0.65878540  0.97112417     0.76490
C667        C  0.66990905  0.75207395  0.00972224     0.76860
C668        C  0.51358888  0.83429703  0.03031407     0.78000
C669        C  0.50997704  0.80057390  0.41720993     0.77050
Zn670      Zn  0.54040116  0.75330129  0.29903796     1.49720
Zn671      Zn  0.43810215  0.69895154  0.26003311     1.49360
Zn672      Zn  0.42357414  0.78136079  0.23155083     1.49110
Zn673      Zn  0.52379542  0.72953094  0.21381995     1.49480
O674        O  0.47844703  0.74134748  0.25347017    -1.84220
O675        O  0.53470831  0.70022078  0.30591824    -0.74850
O676        O  0.36445881  0.71083460  0.25375942    -0.74670
O677        O  0.44298074  0.82135738  0.26375444    -0.74190
O678        O  0.47190553  0.67005516  0.32349558    -0.74870
O679        O  0.52703532  0.80883399  0.28909953    -0.74470
O680        O  0.35277068  0.76731455  0.23371372    -0.75050
O681        O  0.49798184  0.77934386  0.20656339    -0.74440
O682        O  0.43657185  0.66902544  0.21238192    -0.75200
O683        O  0.42245248  0.80021202  0.16393268    -0.74590
O684        O  0.51911831  0.67544061  0.22200139    -0.75060
O685        O  0.60017500  0.73123996  0.22819978    -0.74960
O686        O  0.61499235  0.75253094  0.29493070    -0.74750
C687        C  0.50910438  0.68893180  0.33578481     0.77040
C688        C  0.33532515  0.73801298  0.24352543     0.77530
C689        C  0.48860517  0.83124166  0.27612027     0.76490
C690        C  0.46705760  0.78756581  0.16668224     0.76860
C691        C  0.48132815  0.65567837  0.21883145     0.78000
C692        C  0.63150765  0.74113388  0.26255989     0.77050
C693        C  0.00590932  0.99690788  0.00923021     0.00470
C694        C  0.00671577  0.52557276  0.47177805     0.00470
C695        C  0.00744624  0.98011930  0.26747434     0.00470
C696        C  0.00362465  0.50337678  0.22562590     0.00470
C697        C  0.49733735  0.98483622  0.02413691     0.00470
C698        C  0.50220686  0.50936217  0.47920499     0.00470
C699        C  0.49593148  0.98148683  0.27467963     0.00470
C700        C  0.49819641  0.50583189  0.22977886     0.00470
C701        C  0.46054737  0.97954035  0.40282175    -0.01940
C702        C  0.50281489  0.50027135  0.42693458     0.07740
C703        C  0.53802076  0.51540488  0.39951135    -0.02060
C704        C  0.53669759  0.50989311  0.35105552    -0.02060
C705        C  0.49505779  0.98996131  0.32724865     0.07870
C706        C  0.45974326  0.97443691  0.35424760    -0.02260
Br707      Br  0.40607786  0.94650146  0.32496764    -0.00800
Br708      Br  0.40431544  0.96239285  0.42966162    -0.00880
Br709      Br  0.59303154  0.52607387  0.32361919    -0.00840
Br710      Br  0.59231548  0.54328197  0.42783541    -0.00820
C711        C  0.53522995  0.97495649  0.11893592    -0.01940
C712        C  0.49872383  0.99273442  0.07719343     0.07740
C713        C  0.46219772  0.51203993  0.08639377    -0.02060
C714        C  0.46039126  0.51537376  0.13493748    -0.02060
C715        C  0.49691047  0.49777301  0.17680072     0.07870
C716        C  0.53319028  0.97777538  0.16759334    -0.02260
Br717      Br  0.58985807  0.95669657  0.21850679    -0.00800
Br718      Br  0.59240279  0.94715112  0.11150122    -0.00880
Br719      Br  0.40368315  0.54381768  0.14200717    -0.00840
Br720      Br  0.40536081  0.53272748  0.03540149    -0.00820
C721        C  0.97167244  0.02876217  0.37270161    -0.01940
C722        C  0.00692529  0.51578946  0.41874774     0.07740
C723        C  0.04428456  0.49233967  0.40972865    -0.02060
C724        C  0.03962799  0.47957135  0.36436611    -0.02060
C725        C  0.00618770  0.99208062  0.31929119     0.07870
C726        C  0.96858386  0.01626069  0.32715894    -0.02260
Br727      Br  0.90566799  0.02854437  0.27871266    -0.00800
Br728      Br  0.92389223  0.06576338  0.37415981    -0.00880
Br729      Br  0.08797491  0.44273772  0.36414376    -0.00840
Br730      Br  0.10961923  0.48289273  0.45603212    -0.00820
C731        C  0.97385224  0.98086633  0.13986033    -0.01940
C732        C  0.00782901  0.49644599  0.17300625     0.07740
C733        C  0.04493088  0.51357206  0.14935960    -0.02060
C734        C  0.04248811  0.51582094  0.09863279    -0.02060
C735        C  0.00709755  0.99954606  0.06460079     0.07870
C736        C  0.97036148  0.98296583  0.08889906    -0.02260
Br737      Br  0.90905553  0.96589373  0.05214372    -0.00800
Br738      Br  0.91742172  0.96114670  0.16363192    -0.00880
Br739      Br  0.09941580  0.53556910  0.07505047    -0.00840
Br740      Br  0.10393640  0.53318088  0.18612255    -0.00820
C741        C  0.52891426  0.60137910  0.21040407    -0.01940
C742        C  0.48851783  0.61732428  0.22484939     0.07740
C743        C  0.45412149  0.59617039  0.24544985    -0.02060
C744        C  0.45692581  0.56020213  0.24709470    -0.02060
C745        C  0.49725375  0.54401764  0.23239461     0.07870
C746        C  0.53397249  0.56519347  0.21511684    -0.02260
Br747      Br  0.59361205  0.54559577  0.19919327    -0.00800
Br748      Br  0.57696341  0.62864763  0.18207184    -0.00880
Br749      Br  0.39943035  0.53485633  0.26201754    -0.00840
Br750      Br  0.40305670  0.61533332  0.27372633    -0.00820
C751        C  0.53632654  0.88442956  0.30199558    -0.01940
C752        C  0.49474241  0.86977912  0.27281833     0.07740
C753        C  0.45680660  0.89283870  0.23972216    -0.02060
C754        C  0.45698499  0.92871793  0.24020043    -0.02060
C755        C  0.49694036  0.94317697  0.27165800     0.07870
C756        C  0.53676352  0.92039660  0.30246314    -0.02260
Br757      Br  0.59443390  0.93778619  0.34484714    -0.00800
Br758      Br  0.59518219  0.85636846  0.33986671    -0.00880
Br759      Br  0.39703893  0.95669757  0.20237891    -0.00840
Br760      Br  0.40531469  0.87667902  0.18988652    -0.00820
C761        C  0.53884910  0.59766887  0.01161051    -0.01940
C762        C  0.50466456  0.62170819  0.47388663     0.07740
C763        C  0.46147625  0.60624604  0.44822907    -0.02060
C764        C  0.46065995  0.57008370  0.45006059    -0.02060
C765        C  0.50098708  0.54783867  0.48106843     0.07870
C766        C  0.53817352  0.56154977  0.01331953    -0.02260
Br767      Br  0.59739570  0.53389194  0.05320401    -0.00800
Br768      Br  0.59081456  0.61507521  0.05954633    -0.00880
Br769      Br  0.40199527  0.55171691  0.41016530    -0.00840
Br770      Br  0.40158919  0.63350341  0.41110177    -0.00820
C771        C  0.46717144  0.88860607  0.04214530    -0.01940
C772        C  0.50610440  0.87291674  0.02552239     0.07740
C773        C  0.54292832  0.89251188  0.51059791    -0.02060
C774        C  0.53947679  0.92861693  0.50820414    -0.02060
C775        C  0.49854045  0.94645290  0.02141221     0.07870
C776        C  0.46230588  0.92483132  0.03880212    -0.02260
Br777      Br  0.40352348  0.94390721  0.05666717    -0.00800
Br778      Br  0.42160395  0.86078756  0.07226205    -0.00880
Br779      Br  0.59687619  0.95439682  0.49374955    -0.00840
Br780      Br  0.59752122  0.87378375  0.48651857    -0.00820
C781        C  0.55637681  0.72378196  0.38889604    -0.01940
C782        C  0.50792959  0.71101875  0.37032065     0.07740
C783        C  0.46243825  0.73208477  0.36049101    -0.02060
C784        C  0.46560617  0.76708775  0.36128670    -0.02060
C785        C  0.51346003  0.77947356  0.38191698     0.07870
C786        C  0.55933538  0.75865220  0.39148217    -0.02260
Br787      Br  0.62602802  0.77791209  0.40179604    -0.00800
Br788      Br  0.61930246  0.69497897  0.39944538    -0.00880
Br789      Br  0.40288143  0.79606293  0.34970126    -0.00840
Br790      Br  0.39615926  0.71274337  0.35452390    -0.00820
C791        C  0.56083856  0.74518379  0.12588599    -0.01940
C792        C  0.53582418  0.71460313  0.11871812     0.07740
C793        C  0.48401297  0.71091762  0.12186125    -0.02060
C794        C  0.45530766  0.73936262  0.12667694    -0.02060
C795        C  0.47953250  0.77072677  0.13103620     0.07870
C796        C  0.53188079  0.77399867  0.12911063    -0.02260
Br797      Br  0.56711334  0.81529167  0.14475655    -0.00800
Br798      Br  0.63329389  0.74876368  0.12557996    -0.00880
Br799      Br  0.38546922  0.73339788  0.13448355    -0.00840
Br800      Br  0.44849954  0.67017049  0.10403276    -0.00820
C801        C  0.95681272  0.56092365  0.19740007    -0.01940
C802        C  0.99999562  0.54053967  0.22742284     0.07740
C803        C  0.03880103  0.55603939  0.25889204    -0.02060
C804        C  0.03393559  0.59122683  0.25986395    -0.02060
C805        C  0.99081022  0.61054164  0.23019255     0.07870
C806        C  0.95142837  0.59553443  0.20086175    -0.02260
Br807      Br  0.88729003  0.62160688  0.17055750    -0.00800
Br808      Br  0.90030267  0.54281687  0.15504641    -0.00880
Br809      Br  0.08473448  0.61305012  0.30375753    -0.00840
Br810      Br  0.10038281  0.53081443  0.29920198    -0.00820
C811        C  0.96286489  0.92316742  0.26729316    -0.01940
C812        C  0.00767557  0.94168876  0.26523004     0.07740
C813        C  0.05112384  0.92324581  0.25849206    -0.02060
C814        C  0.05104652  0.88692214  0.26004750    -0.02060
C815        C  0.00407496  0.86956323  0.25685658     0.07870
C816        C  0.95887343  0.88997983  0.25432520    -0.02260
Br817      Br  0.89080980  0.87745591  0.22289382    -0.00800
Br818      Br  0.90402176  0.94302675  0.28346412    -0.00880
Br819      Br  0.11567435  0.86235555  0.26498792    -0.00840
Br820      Br  0.11224161  0.94673647  0.24972147    -0.00820
C821        C  0.76480895  0.76871267  0.25412931    -0.01940
C822        C  0.79129623  0.73660627  0.25541116     0.07740
C823        C  0.76375088  0.70607708  0.25927530    -0.02060
C824        C  0.71222417  0.70759498  0.26394646    -0.02060
C825        C  0.68713601  0.73938462  0.26374876     0.07870
C826        C  0.71345338  0.76979152  0.25919406    -0.02260
Br827      Br  0.67779287  0.81331838  0.25801491    -0.00800
Br828      Br  0.79570979  0.81239231  0.24390908    -0.00880
Br829      Br  0.67601375  0.66576938  0.27223784    -0.00840
Br830      Br  0.79360922  0.66200054  0.25416211    -0.00820
C831        C  0.21086767  0.69707533  0.25425494    -0.01940
C832        C  0.18895333  0.72098966  0.27680721     0.07740
C833        C  0.21583765  0.75092141  0.28750300    -0.02060
C834        C  0.25910478  0.75912545  0.26930997    -0.02060
C835        C  0.28158765  0.73484100  0.24796029     0.07830
C836        C  0.25657834  0.70418525  0.23938142    -0.02260
Br837      Br  0.28135989  0.67353837  0.20212146    -0.00800
Br838      Br  0.17994325  0.65369033  0.24481348    -0.00880
Br839      Br  0.28311575  0.80532440  0.27016768    -0.00840
Br840      Br  0.19541891  0.78207672  0.32670725    -0.00820
C841        C  0.04723241  0.58504046  0.46772668    -0.01940
C842        C  0.00785304  0.56361696  0.47931158     0.07740
C843        C  0.96993417  0.57826687  0.00250607    -0.02060
C844        C  0.97517554  0.61156169  0.01698011    -0.02060
C845        C  0.01758024  0.63265634  0.50351920     0.07870
C846        C  0.05233729  0.61852376  0.48056466    -0.02260
Br847      Br  0.10873150  0.64546486  0.46775383    -0.00800
Br848      Br  0.09563859  0.56983671  0.43421479    -0.00880
Br849      Br  0.92177068  0.63131039  0.04122741    -0.00840
Br850      Br  0.90668767  0.55549725  0.00495265    -0.00820
C851        C  0.04439787  0.91169979  0.49570418    -0.01940
C852        C  0.00493481  0.89963576  0.95837694     0.07740
C853        C  0.96009686  0.92153329  0.94371587    -0.02060
C854        C  0.95908276  0.95307822  0.96069927    -0.02060
C855        C  0.00155709  0.96138711  0.99646457     0.07870
C856        C  0.04060056  0.94113173  0.51639403    -0.02260
Br857      Br  0.09535346  0.94826286  0.57026637    -0.00800
Br858      Br  0.11024278  0.88644690  0.50888854    -0.00880
Br859      Br  0.89790240  0.98334997  0.93553892    -0.00840
Br860      Br  0.89909587  0.90713796  0.90213028    -0.00820
C861        C  0.75232146  0.78622202  0.51087372    -0.01940
C862        C  0.72676416  0.75581206  0.01842717     0.07740
C863        C  0.76151566  0.72941575  0.04745841    -0.02060
C864        C  0.81537240  0.73320003  0.05581947    -0.02060
C865        C  0.83538288  0.76304972  0.03536153     0.07870
C866        C  0.80648161  0.78945529  0.52132416    -0.02260
Br867      Br  0.83216312  0.83457262  0.50593278    -0.00800
Br868      Br  0.70906639  0.82590910  0.47568395    -0.00880
Br869      Br  0.86192712  0.69872602  0.09897154    -0.00840
Br870      Br  0.73616264  0.68884669  0.07904387    -0.00820
C871        C  0.26988222  0.72871373  0.44831941    -0.01940
C872        C  0.30784407  0.74635877  0.98406790     0.07740
C873        C  0.28641041  0.76801703  0.01006939    -0.02060
C874        C  0.23325233  0.76806379  0.00958230    -0.02060
C875        C  0.19799822  0.75120441  0.97659520     0.07870
C876        C  0.21512525  0.73216960  0.44300835    -0.02260
Br877      Br  0.17084023  0.70447704  0.40320242    -0.00800
Br878      Br  0.29723193  0.69412647  0.41912225    -0.00880
Br879      Br  0.21105290  0.78901328  0.05845215    -0.00840
Br880      Br  0.32754098  0.80114885  0.04275584    -0.00820
C881        C  0.90522198  0.72195636  0.36319098    -0.01940
C882        C  0.94912843  0.73922067  0.35196006     0.07740
C883        C  0.94613724  0.77609630  0.34113249    -0.02060
C884        C  0.89870033  0.79319895  0.34000614    -0.02060
C885        C  0.87134230  0.77637605  0.37104317     0.07870
C886        C  0.86305368  0.74207082  0.36774066    -0.02260
Br887      Br  0.80526937  0.72269526  0.38932363    -0.00800
Br888      Br  0.90417327  0.67258300  0.38068642    -0.00880
Br889      Br  0.89286152  0.84247437  0.33396337    -0.00840
Br890      Br  0.00581122  0.80171331  0.36600860    -0.00820
C891        C  0.95449789  0.82777451  0.12825898    -0.01940
C892        C  0.99255108  0.80464835  0.15938893     0.07740
C893        C  0.04463878  0.81536101  0.16894200    -0.02060
C894        C  0.05721698  0.84163708  0.13637425    -0.02060
C895        C  0.02388075  0.84506747  0.09178401     0.07870
C896        C  0.97150950  0.84940140  0.09308727    -0.02260
Br897      Br  0.92448955  0.88076690  0.04619089    -0.00800
Br898      Br  0.88166507  0.82499170  0.12683179    -0.00880
Br899      Br  0.12629932  0.85691081  0.14098127    -0.00840
Br900      Br  0.10094254  0.78833666  0.20972768    -0.00820
Zn901      Zn  0.00098238  0.73831526  0.54036310     1.49720
Zn902      Zn  0.05615786  0.80521255  0.48005825     1.49360
Zn903      Zn  0.02319629  0.73556722  0.94946370     1.49110
Zn904      Zn  0.94942894  0.80036251  0.98829344     1.49480
O905        O  0.01015318  0.76780192  0.48829367    -1.84220
O906        O  0.03386614  0.77706227  0.57540740    -0.74850
O907        O  0.12073704  0.79288692  0.46345687    -0.74670
O908        O  0.01189794  0.68739445  0.97037573    -0.74190
O909        O  0.07654399  0.81849674  0.54237640    -0.74870
O910        O  0.02538359  0.68563919  0.54145521    -0.74470
O911        O  0.10575471  0.73736044  0.95661380    -0.75050
O912        O  0.88971962  0.79610890  0.93425514    -0.74440
O913        O  0.02311996  0.84909248  0.44182667    -0.75200
O914        O  0.95550312  0.76183000  0.93914470    -0.74590
O915        O  0.96822400  0.84815260  0.97743484    -0.75060
O916        O  0.91359142  0.79286844  0.04114610    -0.74960
O917        O  0.92260735  0.73649137  0.53601132    -0.74750
C918        C  0.05934098  0.80479117  0.57688940     0.77040
C919        C  0.13515837  0.76299413  0.45925473     0.77530
C920        C  0.01609529  0.67009517  0.01128538     0.76490
C921        C  0.91033431  0.77377126  0.91734661     0.76860
C922        C  0.99674458  0.86487754  0.46393698     0.78000
C923        C  0.89198278  0.76466942  0.03862765     0.77050
Zn924      Zn  0.03115656  0.70835139  0.72730304     1.49720
Zn925      Zn  0.93556381  0.76965377  0.72044522     1.49360
Zn926      Zn  0.95905208  0.69808862  0.78603060     1.49110
Zn927      Zn  0.04851695  0.76077099  0.79532347     1.49480
O928        O  0.99214886  0.73695380  0.75743807    -1.84220
O929        O  0.98985376  0.71703715  0.65927365    -0.74850
O930        O  0.86720329  0.76140369  0.73659744    -0.74670
O931        O  0.95136234  0.65766231  0.75542926    -0.74190
O932        O  0.92743909  0.75381954  0.65700608    -0.74870
O933        O  0.03032872  0.66005269  0.74546789    -0.74470
O934        O  0.88319711  0.71062852  0.78193599    -0.75050
O935        O  0.06247823  0.72873026  0.85925577    -0.74440
O936        O  0.95544408  0.81945547  0.73011324    -0.75200
O937        O  0.01761855  0.68396533  0.84534316    -0.74590
O938        O  0.03271939  0.81386118  0.78018226    -0.75060
O939        O  0.11702501  0.75732920  0.78197399    -0.74960
O940        O  0.10789474  0.71154110  0.74786542    -0.74750
C941        C  0.97358576  0.74794807  0.65481152     0.77040
C942        C  0.85202801  0.73603042  0.76110961     0.77530
C943        C  0.99145549  0.64336721  0.74956945     0.76490
C944        C  0.02207965  0.71236956  0.86064934     0.76860
C945        C  0.99470804  0.83298248  0.75355680     0.78000
C946        C  0.13676952  0.73342154  0.76648502     0.77050
Zn947      Zn  0.45873702  0.73790981  0.94866187     1.49720
Zn948      Zn  0.47283341  0.75712809  0.53530130     1.49360
Zn949      Zn  0.57902771  0.70907481  0.50716595     1.49110
Zn950      Zn  0.56497186  0.78991182  0.99226462     1.49480
O951        O  0.52193140  0.74851089  0.49567141    -1.84220
O952        O  0.38239755  0.74186932  0.95045148    -0.74850
O953        O  0.50782555  0.70991883  0.53933714    -0.74670
O954        O  0.55667899  0.67044273  0.47227629    -0.74190
O955        O  0.39376139  0.75026532  0.52008707    -0.74870
O956        O  0.47090411  0.68177755  0.96014228    -0.74470
O957        O  0.58430199  0.68634240  0.57385026    -0.75050
O958        O  0.64098565  0.77820708  0.00879647    -0.74440
O959        O  0.47683724  0.81225091  0.53033464    -0.75200
O960        O  0.65255287  0.72326824  0.50594010    -0.74590
O961        O  0.55872763  0.82187089  0.03555023    -0.75060
O962        O  0.53977698  0.81702247  0.92641772    -0.74960
O963        O  0.47285062  0.79019285  0.94133380    -0.74750
C964        C  0.36266335  0.74757584  0.48058838     0.77040
C965        C  0.54186308  0.69930292  0.57683185     0.77530
C966        C  0.51093889  0.66037236  0.46703891     0.76490
C967        C  0.67321642  0.75141348  0.51457983     0.76860
C968        C  0.51457751  0.83239217  0.53535781     0.78000
C969        C  0.50206851  0.79872822  0.91348324     0.77050
Zn970      Zn  0.54242204  0.75033380  0.80161202     1.49720
Zn971      Zn  0.43880101  0.70074675  0.75273237     1.49360
Zn972      Zn  0.43357020  0.78322669  0.72937090     1.49110
Zn973      Zn  0.53212176  0.72991613  0.71420264     1.49480
O974        O  0.48360243  0.74119296  0.75084821    -1.84220
O975        O  0.53141825  0.69804811  0.80590562    -0.74850
O976        O  0.36586917  0.71603925  0.74336362    -0.74670
O977        O  0.44759045  0.81660349  0.77303526    -0.74190
O978        O  0.46464869  0.66925605  0.81565016    -0.74870
O979        O  0.53165129  0.80594330  0.79406934    -0.74470
O980        O  0.35990068  0.77254959  0.72254482    -0.75050
O981        O  0.51524146  0.78104174  0.71079477    -0.74440
O982        O  0.44002973  0.67192361  0.70464324    -0.75200
O983        O  0.44424827  0.80782859  0.66748327    -0.74590
O984        O  0.52361899  0.67637923  0.71997244    -0.75060
O985        O  0.60839905  0.72839532  0.73349332    -0.74960
O986        O  0.61805073  0.74800956  0.80122142    -0.74750
C987        C  0.50202140  0.68664031  0.83230632     0.77040
C988        C  0.33933989  0.74435267  0.73183040     0.77530
C989        C  0.49245388  0.82759322  0.78307291     0.76490
C990        C  0.48675900  0.79213990  0.67051742     0.76860
C991        C  0.48460254  0.65762633  0.71370515     0.78000
C992        C  0.63737591  0.73734342  0.76995483     0.77050
C993        C  0.00184195  0.00033708  0.50803240     0.00470
C994        C  0.00653937  0.52563597  0.97273573     0.00470
C995        C  0.00272977  0.98126683  0.76573693     0.00470
C996        C  0.00704839  0.50341608  0.72717434     0.00470
C997        C  0.49752480  0.98314166  0.52468525     0.00470
C998        C  0.49989685  0.50817870  0.97970901     0.00470
C999        C  0.49462050  0.97771508  0.77652632     0.00470
C1000       C  0.50077821  0.50757819  0.72975089     0.00470
C1001       C  0.45896344  0.97953293  0.90371507    -0.01940
C1002       C  0.50148043  0.49984811  0.92722454     0.07740
C1003       C  0.53707440  0.51562063  0.90070041    -0.02060
C1004       C  0.53654834  0.51101351  0.85199958    -0.02060
C1005       C  0.49383740  0.98745529  0.82842798     0.07870
C1006       C  0.45858732  0.97270592  0.85600823    -0.02260
Br1007     Br  0.40600896  0.94319439  0.82902015    -0.00800
Br1008     Br  0.40208962  0.96411650  0.93089298    -0.00880
Br1009     Br  0.59300425  0.52838662  0.82569929    -0.00840
Br1010     Br  0.59095306  0.54305626  0.93087837    -0.00820
C1011       C  0.53422382  0.97217732  0.61975909    -0.01940
C1012       C  0.49826645  0.99046254  0.57797450     0.07740
C1013       C  0.46561628  0.51387466  0.58619058    -0.02060
C1014       C  0.46361504  0.51725050  0.63467551    -0.02060
C1015       C  0.49994669  0.49961667  0.67671312     0.07870
C1016       C  0.53106991  0.97390133  0.66847331    -0.02260
Br1017     Br  0.58713714  0.95217184  0.71946274    -0.00800
Br1018     Br  0.59251409  0.94539130  0.61249694    -0.00880
Br1019     Br  0.40661239  0.54567127  0.64119724    -0.00840
Br1020     Br  0.40863227  0.53419544  0.53508359    -0.00820
C1021       C  0.97177568  0.02797905  0.87461080    -0.01940
C1022       C  0.00792415  0.51641428  0.91957758     0.07740
C1023       C  0.04530494  0.49275210  0.91084515    -0.02060
C1024       C  0.04087773  0.47975587  0.86562657    -0.02060
C1025       C  0.00325740  0.99224394  0.81845831     0.07870
C1026       C  0.96683360  0.01638894  0.82824769    -0.02260
Br1027     Br  0.90313319  0.03009117  0.78144812    -0.00800
Br1028     Br  0.92474044  0.06454316  0.87902013    -0.00880
Br1029     Br  0.08878893  0.44251455  0.86577456    -0.00840
Br1030     Br  0.11022950  0.48279808  0.95752317    -0.00820
C1031       C  0.96860395  0.98353071  0.63807571    -0.01940
C1032       C  0.01048860  0.49716552  0.67392870     0.07740
C1033       C  0.04655822  0.51502716  0.64955553    -0.02060
C1034       C  0.04325995  0.51760440  0.59853600    -0.02060
C1035       C  0.00152784  0.00333040  0.56289623     0.07870
C1036       C  0.96563255  0.98543474  0.58723153    -0.02260
Br1037     Br  0.90763537  0.96406258  0.55145296    -0.00800
Br1038     Br  0.91273109  0.96264345  0.66168219    -0.00880
Br1039     Br  0.09791660  0.53948988  0.57350632    -0.00840
Br1040     Br  0.10513457  0.53548501  0.68560066    -0.00820
C1041       C  0.53198575  0.60267955  0.70824696    -0.01940
C1042       C  0.49038933  0.61923326  0.72012132     0.07740
C1043       C  0.45444237  0.59870411  0.73950475    -0.02060
C1044       C  0.45867682  0.56249657  0.74454148    -0.02060
C1045       C  0.50012039  0.54576770  0.73212010     0.07870
C1046       C  0.53747348  0.56646984  0.71513753    -0.02260
Br1047     Br  0.59860495  0.54618391  0.70263804    -0.00800
Br1048     Br  0.58037259  0.62915624  0.67923002    -0.00880
Br1049     Br  0.40180764  0.53712725  0.76087467    -0.00840
Br1050     Br  0.39784325  0.61908786  0.75967523    -0.00820
C1051       C  0.53834647  0.88164440  0.80633608    -0.01940
C1052       C  0.49659800  0.86613210  0.77878184     0.07740
C1053       C  0.45668310  0.88824725  0.74636661    -0.02060
C1054       C  0.45649656  0.92424709  0.74493013    -0.02060
C1055       C  0.49663382  0.93946798  0.77500348     0.07870
C1056       C  0.53748830  0.91762115  0.80588497    -0.02260
Br1057     Br  0.59493785  0.93630238  0.84682441    -0.00800
Br1058     Br  0.59879188  0.85477792  0.84359036    -0.00880
Br1059     Br  0.39623790  0.95164765  0.70618374    -0.00840
Br1060     Br  0.40179811  0.87078121  0.70069904    -0.00820
C1061       C  0.54408606  0.59929210  0.50643513    -0.01940
C1062       C  0.50129251  0.62026375  0.97740489     0.07740
C1063       C  0.45946160  0.60505893  0.94948563    -0.02060
C1064       C  0.45857726  0.56893487  0.95092653    -0.02060
C1065       C  0.49837156  0.54653654  0.98240176     0.07870
C1066       C  0.54205586  0.56306532  0.51019370    -0.02260
Br1067     Br  0.60087999  0.53506831  0.55034673    -0.00800
Br1068     Br  0.60194456  0.61689802  0.54839342    -0.00880
Br1069     Br  0.40045174  0.55081269  0.90999325    -0.00840
Br1070     Br  0.40122877  0.63261121  0.91025364    -0.00820
C1071       C  0.46706082  0.88724069  0.54366562    -0.01940
C1072       C  0.50759464  0.87108823  0.52976590     0.07740
C1073       C  0.54022231  0.89469582  0.00527810    -0.02060
C1074       C  0.53837352  0.93051832  0.00579058    -0.02060
C1075       C  0.49849099  0.94484617  0.52180792     0.07870
C1076       C  0.46163886  0.92350630  0.53862538    -0.02260
Br1077     Br  0.40123664  0.94302095  0.55341143    -0.00800
Br1078     Br  0.42042475  0.86010182  0.57322722    -0.00880
Br1079     Br  0.59652531  0.95589354  0.99242357    -0.00840
Br1080     Br  0.58976002  0.87682178  0.97448693    -0.00820
C1081       C  0.54662738  0.71901561  0.88969287    -0.01940
C1082       C  0.49865583  0.70678938  0.86858518     0.07740
C1083       C  0.45286226  0.72767636  0.85897061    -0.02060
C1084       C  0.45595958  0.76245091  0.86164947    -0.02060
C1085       C  0.50417903  0.77504588  0.88106278     0.07870
C1086       C  0.54975759  0.75393463  0.89159777    -0.02260
Br1087     Br  0.61617534  0.77326869  0.89876826    -0.00800
Br1088     Br  0.60967339  0.69002779  0.90144168    -0.00880
Br1089     Br  0.39308562  0.79112751  0.85097959    -0.00840
Br1090     Br  0.38571405  0.70899760  0.84626533    -0.00820
C1091       C  0.56912901  0.73982770  0.62813075    -0.01940
C1092       C  0.53599382  0.71315980  0.61747520     0.07740
C1093       C  0.48382014  0.71524323  0.62007362    -0.02060
C1094       C  0.46295796  0.74611934  0.62688554    -0.02060
C1095       C  0.49532361  0.77387700  0.63438387     0.07870
C1096       C  0.54806492  0.77112068  0.63339975    -0.02260
Br1097     Br  0.59373260  0.80762272  0.65108952    -0.00800
Br1098     Br  0.64256267  0.73451631  0.63184084    -0.00880
Br1099     Br  0.39169146  0.74824551  0.63136292    -0.00840
Br1100     Br  0.43792546  0.67931742  0.59940445    -0.00820
C1101       C  0.96233134  0.56149393  0.70306428    -0.01940
C1102       C  0.00526422  0.54013909  0.73105767     0.07740
C1103       C  0.04387910  0.55351533  0.76516684    -0.02060
C1104       C  0.03774095  0.58723452  0.77278767    -0.02060
C1105       C  0.99376647  0.60746318  0.74630495     0.07870
C1106       C  0.95563678  0.59462907  0.71245702    -0.02260
Br1107     Br  0.89275174  0.62171965  0.68022230    -0.00800
Br1108     Br  0.90818650  0.54612437  0.65507451    -0.00880
Br1109     Br  0.08854752  0.60535402  0.82118748    -0.00840
Br1110     Br  0.10653364  0.52707216  0.80077359    -0.00820
C1111       C  0.95697973  0.92469141  0.76522338    -0.01940
C1112       C  0.00181796  0.94303209  0.76187846     0.07740
C1113       C  0.04349125  0.92493912  0.75125646    -0.02060
C1114       C  0.04184164  0.88903303  0.74935102    -0.02060
C1115       C  0.99597681  0.87154779  0.75118993     0.07870
C1116       C  0.95186246  0.89137193  0.75268150    -0.02260
Br1117     Br  0.88289930  0.87691040  0.72794733    -0.00800
Br1118     Br  0.89901659  0.94537334  0.78174865    -0.00880
Br1119     Br  0.10084836  0.86469863  0.73892107    -0.00840
Br1120     Br  0.10446045  0.94819773  0.74160008    -0.00820
C1121       C  0.77107720  0.76704906  0.76904072    -0.01940
C1122       C  0.79748865  0.73607606  0.76610590     0.07740
C1123       C  0.77120709  0.70496618  0.76828572    -0.02060
C1124       C  0.71951555  0.70517914  0.77247462    -0.02060
C1125       C  0.69355971  0.73619720  0.77430813     0.07870
C1126       C  0.71968619  0.76689999  0.77383804    -0.02260
Br1127     Br  0.68386280  0.80933108  0.77719226    -0.00800
Br1128     Br  0.80318909  0.81051926  0.76595763    -0.00880
Br1129     Br  0.68398228  0.66274768  0.77645723    -0.00840
Br1130     Br  0.80342328  0.66199517  0.76193206    -0.00820
C1131       C  0.21251499  0.70815743  0.74237307    -0.01940
C1132       C  0.19205792  0.73331824  0.76443245     0.07740
C1133       C  0.22139142  0.76215347  0.77531388    -0.02060
C1134       C  0.26488381  0.76885486  0.75672275    -0.02060
C1135       C  0.28492227  0.74389909  0.73465036     0.07830
C1136       C  0.25761154  0.71419171  0.72604784    -0.02260
Br1137     Br  0.27914067  0.68333315  0.68722524    -0.00800
Br1138     Br  0.18301968  0.66366844  0.73741005    -0.00880
Br1139     Br  0.29073902  0.81462522  0.75547051    -0.00840
Br1140     Br  0.20533544  0.79240440  0.81743755    -0.00820
C1141       C  0.04944856  0.58437949  0.97558929    -0.01940
C1142       C  0.00776153  0.56346737  0.98235745     0.07740
C1143       C  0.97165837  0.57853129  0.50098279    -0.02060
C1144       C  0.97732602  0.61216664  0.51375935    -0.02060
C1145       C  0.01797692  0.63138019  0.01185282     0.07870
C1146       C  0.05517903  0.61696728  0.99152026    -0.02260
Br1147     Br  0.11558133  0.64249119  0.98603107    -0.00800
Br1148     Br  0.10099616  0.56898507  0.94572640    -0.00880
Br1149     Br  0.92826800  0.63106308  0.54355710    -0.00840
Br1150     Br  0.90926596  0.55571799  0.50698533    -0.00820
C1151       C  0.04825706  0.90893827  0.99117275    -0.01940
C1152       C  0.00071775  0.90139050  0.46462554     0.07740
C1153       C  0.95585995  0.92304523  0.44839083    -0.02060
C1154       C  0.95558472  0.95577191  0.46171508    -0.02060
C1155       C  0.99806309  0.96484107  0.49672699     0.07870
C1156       C  0.04433353  0.93748800  0.01408734    -0.02260
Br1157     Br  0.09985110  0.94388432  0.06757714    -0.00800
Br1158     Br  0.11398438  0.88340576  0.00369831    -0.00880
Br1159     Br  0.89502154  0.98627044  0.43401980    -0.00840
Br1160     Br  0.89445041  0.90723242  0.40930794    -0.00820
C1161       C  0.74676294  0.78677695  0.00031063    -0.01940
C1162       C  0.73082542  0.75440924  0.52388398     0.07740
C1163       C  0.76503433  0.72618700  0.54833263    -0.02060
C1164       C  0.81920819  0.72925503  0.55704652    -0.02060
C1165       C  0.84056954  0.76037115  0.54228350     0.07870
C1166       C  0.80054803  0.79045802  0.00895976    -0.02260
Br1167     Br  0.82442960  0.83361849  0.98286938    -0.00800
Br1168     Br  0.70175883  0.82477016  0.96190836    -0.00880
Br1169     Br  0.86440189  0.69142428  0.59326945    -0.00840
Br1170     Br  0.73883987  0.68336757  0.57270740    -0.00820
C1171       C  0.27369027  0.72588900  0.95588474    -0.01940
C1172       C  0.30427378  0.74964467  0.47565489     0.07740
C1173       C  0.28221194  0.77294281  0.49902752    -0.02060
C1174       C  0.22853325  0.77423454  0.49717424    -0.02060
C1175       C  0.19331401  0.75571327  0.46641870     0.07870
C1176       C  0.21920623  0.72935063  0.95050301    -0.02260
Br1177     Br  0.17506586  0.70395898  0.90683168    -0.00800
Br1178     Br  0.30101869  0.69146499  0.92632246    -0.00880
Br1179     Br  0.20542175  0.79929809  0.54170848    -0.00840
Br1180     Br  0.32391134  0.80652065  0.52988457    -0.00820
C1181       C  0.93138918  0.71271707  0.87028316    -0.01940
C1182       C  0.97409517  0.73109734  0.85929772     0.07740
C1183       C  0.97049273  0.76754324  0.84904924    -0.02060
C1184       C  0.92195862  0.78425562  0.84350378    -0.02060
C1185       C  0.88986403  0.76690462  0.86984103     0.07870
C1186       C  0.88675109  0.73155649  0.87166142    -0.02260
Br1187     Br  0.83129252  0.71003117  0.89504733    -0.00800
Br1188     Br  0.93257108  0.66300932  0.88529597    -0.00880
Br1189     Br  0.91786237  0.83366841  0.83831368    -0.00840
Br1190     Br  0.03026039  0.79286848  0.87485944    -0.00820
C1191       C  0.99126630  0.81053464  0.64571590    -0.01940
C1192       C  0.01075060  0.77530458  0.66148611     0.07740
C1193       C  0.06575030  0.76760705  0.66804120    -0.02060
C1194       C  0.09594505  0.79567419  0.65816572    -0.02060
C1195       C  0.06982899  0.82029908  0.62126922     0.07870
C1196       C  0.02468299  0.83403201  0.62922011    -0.02260
Br1197     Br  0.00286723  0.88082013  0.60236077    -0.00800
Br1198     Br  0.91835634  0.82608732  0.63025349    -0.00880
Br1199     Br  0.16833984  0.79075308  0.66092643    -0.00840
Br1200     Br  0.09147537  0.72549347  0.65014851    -0.00820
loop_ 
_geom_bond_atom_site_label_1 
_geom_bond_atom_site_label_2 
_geom_bond_distance 
_geom_bond_site_symmetry_2 
_ccdc_geom_bond_type 
Zn1           O5   1.841   1_554  S
Zn1           O6   2.056       .  S
Zn1          O10   2.151       .  S
Zn1          O17   2.077   1_455  S
Zn2           O5   1.951       .  S
Zn2           O7   1.959       .  S
Zn2           O9   1.923   1_556  S
Zn2          O13   1.988       .  S
Zn3         O305   1.838       .  S
Zn3           O8   2.001       .  S
Zn3          O11   2.193       .  S
Zn3          O14   2.046   1_455  S
Zn4         O305   2.082   1_655  S
Zn4          O12   1.972       .  S
Zn4          O15   1.952       .  S
Zn4          O16   1.967       .  S
O5         Zn303   1.848       .  S
O5         Zn304   2.083   1_456  S
O6           C18   1.294       .  A
O7           C19   1.263       .  A
O8           C20   1.268       .  A
O9           C18   1.257       .  A
O10         C320   1.290       .  A
O11         C319   1.289       .  A
O12          C21   1.246       .  A
O13          C22   1.267       .  A
O14          C21   1.276       .  A
O15         C322   1.267   1_655  A
O16          C23   1.259       .  A
O17         C323   1.271       .  A
C18         C295   1.481       .  S
C19         O311   1.288       .  A
C19         C275   1.527       .  S
C20         O310   1.288       .  A
C20         C245   1.507       .  S
C21         C285   1.458       .  S
C22         O315   1.267   1_455  A
C22         C252   1.447       .  S
C23         O317   1.270       .  A
C23         C565   1.499       .  S
Zn24         O28   1.939   1_455  S
Zn24         O29   1.997   1_455  S
Zn24         O33   1.881       .  S
Zn24         O40   2.001       .  S
Zn25         O28   1.976       .  S
Zn25         O30   1.994       .  S
Zn25         O32   1.988       .  S
Zn25         O36   2.083       .  S
Zn26         O28   1.982       .  S
Zn26         O31   1.963       .  S
Zn26         O34   2.037       .  S
Zn26         O37   2.003       .  S
Zn27         O28   1.988   1_455  S
Zn27         O35   2.009       .  S
Zn27         O38   2.069       .  S
Zn27         O39   1.926       .  S
O29          C41   1.259       .  A
O30          C42   1.269       .  A
O31          C43   1.260       .  A
O32          C41   1.264       .  A
O33          C43   1.251   1_455  A
O34          C42   1.273       .  A
O35          C44   1.262       .  A
O36          C45   1.275       .  A
O37          C44   1.258   1_655  A
O38          C45   1.272   1_455  A
O39          C46   1.254       .  A
O40          C46   1.259       .  A
C41         C292   1.474   1_655  S
C42         C222   1.484       .  S
C43         C205   1.433       .  S
C44         C282   1.466   1_455  S
C45         C215   1.513       .  S
C46         C232   1.479       .  S
Zn47        O351   1.943       .  S
Zn47         O52   2.074       .  S
Zn47         O56   2.201       .  S
Zn47         O63   2.101       .  S
Zn48         O51   1.991   1_554  S
Zn48         O53   2.032       .  S
Zn48         O55   2.075       .  S
Zn48         O59   2.154       .  S
Zn49         O51   2.091   1_554  S
Zn49         O54   1.987   1_554  S
Zn49         O57   1.995       .  S
Zn49         O60   2.049       .  S
Zn50        O351   2.069       .  S
Zn50         O58   2.022       .  S
Zn50         O61   1.983       .  S
Zn50         O62   2.001       .  S
O51        Zn347   1.980       .  S
O51        Zn350   2.044   1_556  S
O52         C364   1.267       .  A
O53          C65   1.256       .  A
O54          C66   1.269       .  A
O55          C64   1.269   1_554  A
O56         C366   1.294       .  A
O57          C65   1.259       .  A
O58         C367   1.271       .  A
O59          C68   1.283       .  A
O60          C67   1.275       .  A
O61         C368   1.260       .  A
O62          C69   1.260       .  A
O63          C69   1.271       .  A
C64         O352   1.268       .  A
C64         C272   1.528       .  S
C65         C192   1.407       .  S
C66         O356   1.293       .  A
C66         C462   1.528       .  S
C67         O358   1.270       .  A
C67         C262   1.503       .  S
C68         O361   1.257       .  A
C68         C172   1.509       .  S
C69         C185   1.430       .  S
Zn70         O74   1.962       .  S
Zn70         O75   2.078       .  S
Zn70         O79   2.161       .  S
Zn70         O86   1.995       .  S
Zn71         O74   2.001       .  S
Zn71         O76   1.973       .  S
Zn71         O78   2.031       .  S
Zn71         O82   1.952       .  S
Zn72         O74   2.056       .  S
Zn72         O77   1.963       .  S
Zn72         O80   1.967       .  S
Zn72         O83   2.004       .  S
Zn73         O74   1.949       .  S
Zn73         O81   2.023       .  S
Zn73         O84   2.112       .  S
Zn73         O85   1.981       .  S
O75          C87   1.261       .  A
O76          C88   1.270       .  A
O77          C89   1.266       .  A
O78          C87   1.262       .  A
O79          C89   1.286       .  A
O80          C88   1.267       .  A
O81          C90   1.251       .  A
O82          C91   1.256       .  A
O83          C90   1.261       .  A
O84          C91   1.273       .  A
O85          C92   1.257       .  A
O86          C92   1.259       .  A
C87         C182   1.428       .  S
C88         C235   1.467       .  S
C89         C152   1.515       .  S
C90         C195   1.410       .  S
C91         C142   1.501       .  S
C92         C225   1.467       .  S
C93         C135   1.618       .  S
C93         C255   1.484   1_554  S
C93         C994   1.438   1_554  D
C94         C122   1.645       .  S
C94         C242   1.542       .  S
C94         C993   1.441       .  D
C95         C125   1.653       .  S
C95         C212   1.526       .  S
C95         C696   1.447       .  D
C96         C132   1.629   1_545  S
C96         C202   1.477       .  S
C96         C695   1.450   1_545  D
C97         C112   1.616       .  S
C97         C175   1.519       .  S
C97         C998   1.450   1_554  D
C98         C102   1.622   1_545  S
C98         C165   1.530       .  S
C98         C997   1.453   1_545  D
C99         C105   1.617       .  S
C99         C155   1.520       .  S
C99         C700   1.446       .  D
C100        C115   1.616   1_545  S
C100        C145   1.517       .  S
C100        C699   1.449   1_545  D
C101        C106   1.453       .  A
C101        C702   1.431       .  A
C101       Br108   1.930       .  S
C102        C103   1.449   1_565  A
C102        C701   1.431       .  A
C103        C104   1.454       .  A
C103       Br110   1.929       .  S
C104        C705   1.430   1_545  A
C104       Br109   1.930       .  S
C105        C106   1.447       .  A
C105        C704   1.429       .  A
C106       Br107   1.930       .  S
C111        C112   1.448       .  A
C111        C116   1.451       .  A
C111       Br118   1.929       .  S
C112        C713   1.430       .  A
C113        C114   1.452       .  A
C113        C712   1.428   1_545  A
C113       Br120   1.929       .  S
C114        C115   1.448   1_545  A
C114       Br119   1.930       .  S
C115        C716   1.430       .  A
C116        C715   1.429       .  A
C116       Br117   1.931       .  S
C121        C126   1.469       .  A
C121        C722   1.440   1_655  A
C121       Br128   1.929       .  S
C122        C123   1.439   1_545  A
C122        C721   1.439   1_455  A
C123        C124   1.461       .  A
C123       Br130   1.929       .  S
C124        C725   1.446       .  A
C124       Br129   1.924       .  S
C125        C126   1.449   1_455  A
C125        C724   1.446       .  A
C126       Br127   1.921       .  S
C131        C136   1.454       .  A
C131        C732   1.433   1_655  A
C131       Br138   1.922       .  S
C132        C133   1.452   1_565  A
C132        C731   1.433   1_455  A
C133        C134   1.459       .  A
C133       Br140   1.921       .  S
C134        C735   1.430   1_545  A
C134       Br139   1.930       .  S
C135        C136   1.448   1_455  A
C135        C734   1.428       .  A
C136       Br137   1.927       .  S
C141        C142   1.412       .  A
C141        C146   1.412       .  A
C141       Br148   1.934       .  S
C142        C143   1.423       .  A
C143        C144   1.411       .  A
C143       Br150   1.938       .  S
C144        C145   1.418       .  A
C144       Br149   1.935       .  S
C145        C146   1.425       .  A
C146       Br147   1.932       .  S
C151        C152   1.414       .  A
C151        C156   1.416       .  A
C151       Br158   1.917       .  S
C152        C153   1.425       .  A
C153        C154   1.412       .  A
C153       Br160   1.937       .  S
C154        C155   1.417       .  A
C154       Br159   1.933       .  S
C155        C156   1.423       .  A
C156       Br157   1.933       .  S
C161        C166   1.419       .  A
C161        C462   1.429   1_554  A
C161       Br168   1.933       .  S
C162        C366   1.527       .  S
C162        C163   1.414       .  A
C162        C461   1.428       .  A
C163        C164   1.419       .  A
C163       Br170   1.913       .  S
C164        C165   1.423       .  A
C164       Br169   1.933       .  S
C165        C466   1.418       .  A
C166        C465   1.417   1_554  A
C166       Br167   1.934       .  S
C171        C172   1.409       .  A
C171        C176   1.414       .  A
C171       Br178   1.923       .  S
C172        C473   1.426       .  A
C173        C174   1.411       .  A
C173        C472   1.420       .  A
C173       Br180   1.933       .  S
C174        C475   1.418       .  A
C174       Br179   1.935       .  S
C175        C176   1.425       .  A
C175        C474   1.416       .  A
C176       Br177   1.931       .  S
C181        C182   1.406       .  A
C181        C186   1.391       .  A
C181       Br188   1.939       .  S
C182        C183   1.402       .  A
C183        C184   1.384       .  A
C183       Br190   1.905       .  S
C184        C185   1.400       .  A
C184       Br189   1.937       .  S
C185        C186   1.407       .  A
C186       Br187   1.917       .  S
C191        C192   1.401       .  A
C191        C196   1.387       .  A
C191       Br198   1.935       .  S
C192        C193   1.409       .  A
C193        C194   1.388       .  A
C193       Br200   1.943       .  S
C194        C195   1.408       .  A
C194       Br199   1.937       .  S
C195        C196   1.415       .  A
C196       Br197   1.950       .  S
C201        C202   1.420   1_655  A
C201        C206   1.393       .  A
C201       Br208   1.925       .  S
C202        C203   1.419       .  A
C203        C204   1.393       .  A
C203       Br210   1.938       .  S
C204        C205   1.402   1_455  A
C204       Br209   1.933       .  S
C205        C206   1.393       .  A
C206       Br207   1.933       .  S
C211        C212   1.417   1_655  A
C211        C216   1.414       .  A
C211       Br218   1.923       .  S
C212        C213   1.424       .  A
C213        C214   1.423       .  A
C213       Br220   1.929       .  S
C214        C215   1.419   1_455  A
C214       Br219   1.932       .  S
C215        C216   1.411       .  A
C216       Br217   1.935       .  S
C221        C222   1.420       .  A
C221        C226   1.405       .  A
C221       Br228   1.926       .  S
C222        C223   1.416       .  A
C223        C224   1.405       .  A
C223       Br230   1.936       .  S
C224        C225   1.408       .  A
C224       Br229   1.932       .  S
C225        C226   1.403       .  A
C226       Br227   1.934       .  S
C231        C232   1.416       .  A
C231        C236   1.398       .  A
C231       Br238   1.937       .  S
C232        C233   1.418       .  A
C233        C234   1.399       .  A
C233       Br240   1.944       .  S
C234        C235   1.414       .  A
C234       Br239   1.935       .  S
C235        C236   1.410       .  A
C236       Br237   1.940       .  S
C241        C242   1.425       .  A
C241        C246   1.420       .  A
C241       Br248   1.917       .  S
C242        C543   1.428   1_455  A
C243        C244   1.426       .  A
C243        C542   1.429   1_654  A
C243       Br250   1.925       .  S
C244        C545   1.409   1_655  A
C244       Br249   1.923       .  S
C245        C246   1.409       .  A
C245        C544   1.409   1_455  A
C246       Br247   1.930       .  S
C251        C256   1.393       .  A
C251        C552   1.400       .  A
C251       Br258   1.931       .  S
C252        C253   1.401   1_455  A
C252        C551   1.400       .  A
C253        C254   1.399       .  A
C253       Br260   1.926       .  S
C254        C255   1.422   1_655  A
C254       Br259   1.935       .  S
C255        C556   1.412   1_556  A
C256        C555   1.412       .  A
C256       Br257   1.932       .  S
C261        C266   1.410       .  A
C261        C562   1.415       .  A
C261       Br268   1.935       .  S
C262        C263   1.417       .  A
C262        C561   1.421       .  A
C263        C264   1.415       .  A
C263       Br270   1.935       .  S
C264        C265   1.412       .  A
C264       Br269   1.920       .  S
C265        C323   1.503       .  S
C265        C566   1.420       .  A
C266        C565   1.421       .  A
C266       Br267   1.937       .  S
C271        C276   1.430       .  A
C271        C572   1.426       .  A
C271       Br278   1.921       .  S
C272        C273   1.415   1_556  A
C272        C571   1.424       .  A
C273        C274   1.415   1_554  A
C273       Br280   1.926       .  S
C274        C275   1.424       .  A
C274       Br279   1.939   1_556  S
C275        C576   1.417       .  A
C276        C575   1.416       .  A
C276       Br277   1.925       .  S
C281        C282   1.440       .  A
C281        C286   1.403       .  A
C281       Br288   1.942       .  S
C282        C283   1.437       .  A
C283        C284   1.410       .  A
C283       Br290   1.955   1_655  S
C284        C285   1.389       .  A
C284       Br289   1.914       .  S
C285        C286   1.382       .  A
C286       Br287   1.920       .  S
C291        C292   1.441       .  A
C291        C296   1.403       .  A
C291       Br298   1.947   1_455  S
C292        C293   1.453       .  A
C293        C294   1.410       .  A
C293       Br300   1.969       .  S
C294        C295   1.381       .  A
C294       Br299   1.913       .  S
C295        C296   1.391       .  A
C296       Br297   1.917       .  S
Zn301       O305   1.835       .  S
Zn301       O306   2.039       .  S
Zn301       O310   2.130       .  S
Zn301       O317   2.068   1_455  S
Zn302       O305   1.948       .  S
Zn302       O307   1.963       .  S
Zn302       O309   1.922       .  S
Zn302       O313   1.984       .  S
Zn303       O308   2.005       .  S
Zn303       O311   2.196       .  S
Zn303       O314   2.051   1_455  S
Zn304       O312   1.979   1_554  S
Zn304       O315   1.964   1_554  S
Zn304       O316   1.963       .  S
O306        C318   1.292       .  A
O307        C319   1.263       .  A
O308        C320   1.268   1_556  A
O309        C318   1.256       .  A
O312        C321   1.248       .  A
O313        C322   1.268       .  A
O314        C321   1.277       .  A
O316        C323   1.259       .  A
C318        C595   1.475       .  S
C319        C575   1.530       .  S
C320        C545   1.515       .  S
C321        C585   1.459       .  S
C322        C552   1.442       .  S
Zn324       O328   1.938   1_455  S
Zn324       O329   2.008   1_455  S
Zn324       O333   1.897       .  S
Zn324       O340   2.014       .  S
Zn325       O328   1.977       .  S
Zn325       O330   2.003       .  S
Zn325       O332   2.007       .  S
Zn325       O336   2.078       .  S
Zn326       O328   1.980       .  S
Zn326       O331   1.952       .  S
Zn326       O334   2.061       .  S
Zn326       O337   2.012       .  S
Zn327       O328   1.981   1_455  S
Zn327       O335   2.016       .  S
Zn327       O338   2.073       .  S
Zn327       O339   1.951       .  S
O329        C341   1.262       .  A
O330        C342   1.269       .  A
O331        C343   1.261       .  A
O332        C341   1.262       .  A
O333        C343   1.253   1_455  A
O334        C342   1.275       .  A
O335        C344   1.264   1_455  A
O336        C345   1.276       .  A
O337        C344   1.259       .  A
O338        C345   1.274   1_455  A
O339        C346   1.255       .  A
O340        C346   1.260       .  A
C341        C592   1.473   1_655  S
C342        C522   1.495       .  S
C343        C505   1.444       .  S
C344        C582   1.464       .  S
C345        C515   1.507       .  S
C346        C532   1.486       .  S
Zn347       O352   2.097       .  S
Zn347       O356   2.215       .  S
Zn347       O363   2.095       .  S
Zn348       O351   2.017       .  S
Zn348       O353   1.970       .  S
Zn348       O355   2.105       .  S
Zn348       O359   2.079       .  S
Zn349       O351   2.140       .  S
Zn349       O354   1.984       .  S
Zn349       O357   2.004       .  S
Zn349       O360   2.027       .  S
Zn350       O358   2.014       .  S
Zn350       O361   1.933       .  S
Zn350       O362   2.000   1_554  S
O353        C365   1.255       .  A
O354        C366   1.270       .  A
O355        C364   1.275       .  A
O357        C365   1.255       .  A
O359        C368   1.271       .  A
O360        C367   1.275       .  A
O362        C369   1.257       .  A
O363        C369   1.271       .  A
C364        C572   1.535       .  S
C365        C492   1.392       .  S
C367        C562   1.492       .  S
C368        C472   1.500       .  S
C369        C485   1.425       .  S
Zn370       O374   1.907       .  S
Zn370       O375   2.085       .  S
Zn370       O379   2.163       .  S
Zn370       O386   1.942       .  S
Zn371       O374   2.060       .  S
Zn371       O376   1.984       .  S
Zn371       O378   2.025       .  S
Zn371       O382   2.015       .  S
Zn372       O374   2.023       .  S
Zn372       O377   1.953       .  S
Zn372       O380   1.995       .  S
Zn372       O383   2.011       .  S
Zn373       O374   1.892       .  S
Zn373       O381   2.016       .  S
Zn373       O384   2.003       .  S
Zn373       O385   2.089       .  S
O375        C387   1.261       .  A
O376        C388   1.271       .  A
O377        C389   1.266       .  A
O378        C387   1.264       .  A
O379        C389   1.288       .  A
O380        C388   1.270       .  A
O381        C390   1.246       .  A
O382        C391   1.261       .  A
O383        C390   1.259       .  A
O384        C391   1.256       .  A
O385        C392   1.276       .  A
O386        C392   1.257       .  A
C387        C482   1.421       .  S
C388        C535   1.474       .  S
C389        C452   1.522       .  S
C390        C495   1.413       .  S
C391        C442   1.478       .  S
C392        C525   1.483       .  S
C393        C435   1.624       .  S
C393        C555   1.478       .  S
C393        C694   1.443       .  D
C394        C422   1.644       .  S
C394        C542   1.549       .  S
C394        C693   1.442   1_546  D
C395        C425   1.657       .  S
C395        C512   1.522       .  S
C395        C996   1.449       .  D
C396        C432   1.628   1_545  S
C396        C502   1.475       .  S
C396        C995   1.448   1_545  D
C397        C412   1.616       .  S
C397        C475   1.517       .  S
C397        C698   1.449       .  D
C398        C402   1.616   1_545  S
C398        C465   1.533       .  S
C398        C697   1.451   1_546  D
C399        C405   1.620       .  S
C399        C455   1.519       .  S
C399       C1000   1.448       .  D
C400        C415   1.619   1_545  S
C400        C445   1.499       .  S
C400        C999   1.443   1_545  D
C401       C1002   1.431       .  A
C401        C406   1.454       .  A
C401       Br408   1.930       .  S
C402       C1001   1.430       .  A
C402        C403   1.446   1_565  A
C403        C404   1.452       .  A
C403       Br410   1.930       .  S
C404       C1005   1.432   1_545  A
C404       Br409   1.929       .  S
C405       C1004   1.431       .  A
C405        C406   1.448       .  A
C406       Br407   1.929       .  S
C411        C412   1.448       .  A
C411        C416   1.452       .  A
C411       Br418   1.929       .  S
C412       C1013   1.429       .  A
C413       C1012   1.428   1_545  A
C413        C414   1.453       .  A
C413       Br420   1.928       .  S
C414        C415   1.449   1_545  A
C414       Br419   1.929       .  S
C415       C1016   1.431       .  A
C416       C1015   1.430       .  A
C416       Br417   1.931       .  S
C421       C1022   1.439   1_655  A
C421        C426   1.470       .  A
C421       Br428   1.927       .  S
C422       C1021   1.438   1_455  A
C422        C423   1.440   1_545  A
C423        C424   1.461       .  A
C423       Br430   1.928       .  S
C424       C1025   1.445       .  A
C424       Br429   1.925       .  S
C425       C1024   1.445       .  A
C425        C426   1.450   1_455  A
C426       Br427   1.923       .  S
C431       C1032   1.432   1_655  A
C431        C436   1.456       .  A
C431       Br438   1.923       .  S
C432       C1031   1.433   1_455  A
C432        C433   1.453   1_565  A
C433        C434   1.457       .  A
C433       Br440   1.922       .  S
C434       C1035   1.428       .  A
C434       Br439   1.931       .  S
C435       C1034   1.429       .  A
C435        C436   1.450   1_455  A
C436       Br437   1.926       .  S
C441        C442   1.412       .  A
C441        C446   1.401       .  A
C441       Br448   1.932       .  S
C442        C443   1.412       .  A
C443        C444   1.405       .  A
C443       Br450   1.937       .  S
C444        C445   1.420       .  A
C444       Br449   1.933       .  S
C445        C446   1.419       .  A
C446       Br447   1.937       .  S
C451        C452   1.418       .  A
C451        C456   1.417       .  A
C451       Br458   1.920       .  S
C452        C453   1.429       .  A
C453        C454   1.411       .  A
C453       Br460   1.939       .  S
C454        C455   1.414       .  A
C454       Br459   1.935       .  S
C455        C456   1.421       .  A
C456       Br457   1.935       .  S
C461        C466   1.420       .  A
C461       Br468   1.935       .  S
C462        C463   1.414       .  A
C463        C464   1.422       .  A
C463       Br470   1.918       .  S
C464        C465   1.425       .  A
C464       Br469   1.931       .  S
C466       Br467   1.933       .  S
C471        C472   1.410       .  A
C471        C476   1.412       .  A
C471       Br478   1.930       .  S
C473        C474   1.413       .  A
C473       Br480   1.932   1_554  S
C474       Br479   1.938   1_554  S
C475        C476   1.425       .  A
C476       Br477   1.932       .  S
C481        C482   1.407       .  A
C481        C486   1.388       .  A
C481       Br488   1.940       .  S
C482        C483   1.402       .  A
C483        C484   1.383       .  A
C483       Br490   1.906       .  S
C484        C485   1.395       .  A
C484       Br489   1.929       .  S
C485        C486   1.405       .  A
C486       Br487   1.914       .  S
C491        C492   1.405       .  A
C491        C496   1.392       .  A
C491       Br498   1.939       .  S
C492        C493   1.404       .  A
C493        C494   1.385       .  A
C493       Br500   1.934       .  S
C494        C495   1.411       .  A
C494       Br499   1.945       .  S
C495        C496   1.407       .  A
C496       Br497   1.933       .  S
C501        C502   1.417   1_655  A
C501        C506   1.393       .  A
C501       Br508   1.929       .  S
C502        C503   1.417       .  A
C503        C504   1.393       .  A
C503       Br510   1.941       .  S
C504        C505   1.408   1_455  A
C504       Br509   1.936       .  S
C505        C506   1.401       .  A
C506       Br507   1.936       .  S
C511        C512   1.417   1_655  A
C511        C516   1.412       .  A
C511       Br518   1.921       .  S
C512        C513   1.424       .  A
C513        C514   1.421       .  A
C513       Br520   1.930       .  S
C514        C515   1.416   1_455  A
C514       Br519   1.931       .  S
C515        C516   1.409       .  A
C516       Br517   1.934       .  S
C521        C522   1.421       .  A
C521        C526   1.411       .  A
C521       Br528   1.926       .  S
C522        C523   1.416       .  A
C523        C524   1.407       .  A
C523       Br530   1.935       .  S
C524        C525   1.408       .  A
C524       Br529   1.921       .  S
C525        C526   1.408       .  A
C526       Br527   1.935       .  S
C531        C532   1.417       .  A
C531        C536   1.400       .  A
C531       Br538   1.936       .  S
C532        C533   1.420       .  A
C533        C534   1.403       .  A
C533       Br540   1.940       .  S
C534        C535   1.413       .  A
C534       Br539   1.932       .  S
C535        C536   1.411       .  A
C536       Br537   1.940       .  S
C541        C542   1.425       .  A
C541        C546   1.422       .  A
C541       Br548   1.918       .  S
C543        C544   1.424       .  A
C543       Br550   1.928       .  S
C544       Br549   1.924       .  S
C545        C546   1.411   1_554  A
C546       Br547   1.928       .  S
C551        C556   1.394   1_556  A
C551       Br558   1.930   1_556  S
C552        C553   1.401   1_455  A
C553        C554   1.396       .  A
C553       Br560   1.926       .  S
C554        C555   1.421   1_655  A
C554       Br559   1.937       .  S
C556       Br557   1.931       .  S
C561        C566   1.411       .  A
C561       Br568   1.936   1_554  S
C562        C563   1.414       .  A
C563        C564   1.413       .  A
C563       Br570   1.934       .  S
C564        C565   1.412       .  A
C564       Br569   1.920       .  S
C566       Br567   1.941       .  S
C571        C576   1.430       .  A
C571       Br578   1.922       .  S
C572        C573   1.418       .  A
C573        C574   1.420       .  A
C573       Br580   1.927       .  S
C574        C575   1.426       .  A
C574       Br579   1.940       .  S
C576       Br577   1.922       .  S
C581        C582   1.438       .  A
C581        C586   1.403       .  A
C581       Br588   1.941       .  S
C582        C583   1.435       .  A
C583        C584   1.410       .  A
C583       Br590   1.951   1_655  S
C584        C585   1.392       .  A
C584       Br589   1.916       .  S
C585        C586   1.383       .  A
C586       Br587   1.919       .  S
C591        C592   1.441   1_655  A
C591        C596   1.403   1_655  A
C591       Br598   1.951       .  S
C592        C593   1.447       .  A
C593        C594   1.411       .  A
C593       Br600   1.972       .  S
C594        C595   1.381       .  A
C594       Br599   1.915       .  S
C595        C596   1.391       .  A
C596       Br597   1.920       .  S
Zn601       O605   1.854   1_654  S
Zn601       O606   2.125   1_655  S
Zn601       O610   2.209   1_655  S
Zn601       O617   2.051       .  S
Zn602       O605   1.931       .  S
Zn602       O607   1.941       .  S
Zn602       O609   1.895   1_556  S
Zn602       O613   2.005       .  S
Zn603       O905   1.840       .  S
Zn603       O608   1.993       .  S
Zn603       O611   2.195       .  S
Zn603       O614   2.046   1_455  S
Zn604       O905   2.081   1_655  S
Zn604       O612   1.981       .  S
Zn604       O615   1.959       .  S
Zn604       O616   1.970       .  S
O605       Zn903   1.885       .  S
O605       Zn904   2.118   1_455  S
O606        C618   1.298       .  A
O607        C619   1.263       .  A
O608        C620   1.266       .  A
O609        C618   1.258       .  A
O610        C920   1.300       .  A
O611        C919   1.288       .  A
O612        C621   1.249       .  A
O613        C622   1.269   1_455  A
O614        C621   1.276       .  A
O615        C922   1.267       .  A
O616        C623   1.260       .  A
O617        C923   1.272       .  A
C618        C895   1.491       .  S
C619        O911   1.284       .  A
C619        C875   1.514       .  S
C620        O910   1.291       .  A
C620        C845   1.514       .  S
C621        C885   1.459       .  S
C622        O915   1.265       .  A
C622        C852   1.459   1_655  S
C623        O917   1.269       .  A
C623       C1165   1.499       .  S
Zn624       O628   1.980   1_455  S
Zn624       O629   1.956       .  S
Zn624       O633   1.946       .  S
Zn624       O640   1.987       .  S
Zn625       O628   1.933       .  S
Zn625       O630   1.980       .  S
Zn625       O632   1.904       .  S
Zn625       O636   2.058       .  S
Zn626       O628   1.945       .  S
Zn626       O631   1.918       .  S
Zn626       O634   2.064       .  S
Zn626       O637   1.978       .  S
Zn627       O628   1.960   1_455  S
Zn627       O635   1.993       .  S
Zn627       O638   2.122       .  S
Zn627       O639   1.963       .  S
O629        C641   1.263   1_455  A
O630        C642   1.266       .  A
O631        C643   1.260       .  A
O632        C641   1.258       .  A
O633        C643   1.265   1_455  A
O634        C642   1.277       .  A
O635        C644   1.263   1_455  A
O636        C645   1.276   1_655  A
O637        C644   1.257       .  A
O638        C645   1.283       .  A
O639        C646   1.263       .  A
O640        C646   1.267       .  A
C641        C892   1.462       .  S
C642        C822   1.499       .  S
C643        C805   1.426       .  S
C644        C882   1.470       .  S
C645        C815   1.519       .  S
C646        C832   1.478       .  S
Zn647       O951   1.981       .  S
Zn647       O652   2.080       .  S
Zn647       O656   2.199       .  S
Zn647       O663   2.089       .  S
Zn648       O651   1.981   1_554  S
Zn648       O653   2.027       .  S
Zn648       O655   2.048       .  S
Zn648       O659   2.160       .  S
Zn649       O651   2.091   1_554  S
Zn649       O654   1.973   1_554  S
Zn649       O657   1.992       .  S
Zn649       O660   2.021       .  S
Zn650       O951   2.039       .  S
Zn650       O658   2.009       .  S
Zn650       O661   1.937       .  S
Zn650       O662   2.011       .  S
O651       Zn947   1.971       .  S
O651       Zn950   2.024       .  S
O652        C964   1.268       .  A
O653        C665   1.256       .  A
O654        C666   1.267       .  A
O655        C664   1.267   1_554  A
O656        C966   1.291       .  A
O657        C665   1.258       .  A
O658        C967   1.268       .  A
O659        C668   1.282       .  A
O660        C667   1.273       .  A
O661        C968   1.255       .  A
O662        C669   1.258       .  A
O663        C669   1.268       .  A
C664        O952   1.266       .  A
C664        C872   1.510       .  S
C665        C792   1.406       .  S
C666        O956   1.291       .  A
C666       C1062   1.521       .  S
C667        O958   1.268       .  A
C667        C862   1.485       .  S
C668        O961   1.255       .  A
C668        C772   1.511       .  S
C669        C785   1.430       .  S
Zn670       O674   1.970       .  S
Zn670       O675   2.080       .  S
Zn670       O679   2.175       .  S
Zn670       O686   2.013       .  S
Zn671       O674   2.006       .  S
Zn671       O676   1.965       .  S
Zn671       O678   2.027       .  S
Zn671       O682   1.941       .  S
Zn672       O674   2.054       .  S
Zn672       O677   1.962       .  S
Zn672       O680   1.981       .  S
Zn672       O683   1.996       .  S
Zn673       O674   1.947       .  S
Zn673       O681   2.032       .  S
Zn673       O684   2.116       .  S
Zn673       O685   1.978       .  S
O675        C687   1.262       .  A
O676        C688   1.268       .  A
O677        C689   1.265       .  A
O678        C687   1.261       .  A
O679        C689   1.288       .  A
O680        C688   1.268       .  A
O681        C690   1.253       .  A
O682        C691   1.254       .  A
O683        C690   1.259       .  A
O684        C691   1.274       .  A
O685        C692   1.257       .  A
O686        C692   1.262       .  A
C687        C782   1.427       .  S
C688        C835   1.469       .  S
C689        C752   1.519       .  S
C690        C795   1.408       .  S
C691        C742   1.498       .  S
C692        C825   1.471       .  S
C693        C735   1.625       .  S
C693        C855   1.497   1_554  S
C694        C722   1.647       .  S
C694        C842   1.544       .  S
C695        C725   1.653       .  S
C695        C812   1.523       .  S
C696        C732   1.625       .  S
C696        C802   1.473   1_455  S
C697        C712   1.613       .  S
C697        C775   1.524       .  S
C698        C702   1.618       .  S
C698        C765   1.523       .  S
C699        C705   1.620       .  S
C699        C755   1.523       .  S
C700        C715   1.614       .  S
C700        C745   1.515       .  S
C701        C706   1.454       .  A
C701       Br708   1.929       .  S
C702        C703   1.448       .  A
C703        C704   1.452       .  A
C703       Br710   1.929       .  S
C704       Br709   1.930       .  S
C705        C706   1.448       .  A
C706       Br707   1.929       .  S
C711        C712   1.447       .  A
C711        C716   1.452       .  A
C711       Br718   1.930       .  S
C713        C714   1.452       .  A
C713       Br720   1.928       .  S
C714        C715   1.447       .  A
C714       Br719   1.930       .  S
C716       Br717   1.929       .  S
C721        C726   1.466       .  A
C721       Br728   1.929       .  S
C722        C723   1.439       .  A
C723        C724   1.461       .  A
C723       Br730   1.928       .  S
C724       Br729   1.924       .  S
C725        C726   1.448   1_465  A
C726       Br727   1.923       .  S
C731        C736   1.457       .  A
C731       Br738   1.922       .  S
C732        C733   1.450       .  A
C733        C734   1.455       .  A
C733       Br740   1.922       .  S
C734       Br739   1.931       .  S
C735        C736   1.445   1_455  A
C736       Br737   1.918       .  S
C741        C742   1.411       .  A
C741        C746   1.412       .  A
C741       Br748   1.934       .  S
C742        C743   1.422       .  A
C743        C744   1.409       .  A
C743       Br750   1.939       .  S
C744        C745   1.418       .  A
C744       Br749   1.936       .  S
C745        C746   1.425       .  A
C746       Br747   1.932       .  S
C751        C752   1.414       .  A
C751        C756   1.417       .  A
C751       Br758   1.917       .  S
C752        C753   1.427       .  A
C753        C754   1.414       .  A
C753       Br760   1.937       .  S
C754        C755   1.416       .  A
C754       Br759   1.934       .  S
C755        C756   1.423       .  A
C756       Br757   1.933       .  S
C761       C1062   1.426   1_554  A
C761        C766   1.415       .  A
C761       Br768   1.932       .  S
C762        C966   1.522       .  S
C762       C1061   1.429       .  A
C762        C763   1.414       .  A
C763        C764   1.417       .  A
C763       Br770   1.914       .  S
C764        C765   1.422       .  A
C764       Br769   1.933       .  S
C765       C1066   1.416       .  A
C766       C1065   1.417   1_554  A
C766       Br767   1.934       .  S
C771        C772   1.410       .  A
C771        C776   1.416       .  A
C771       Br778   1.922       .  S
C772       C1073   1.425       .  A
C773       C1072   1.427       .  A
C773        C774   1.413       .  A
C773       Br780   1.932       .  S
C774       C1075   1.416       .  A
C774       Br779   1.938       .  S
C775       C1074   1.417       .  A
C775        C776   1.427       .  A
C776       Br777   1.932       .  S
C781        C782   1.405       .  A
C781        C786   1.387       .  A
C781       Br788   1.943       .  S
C782        C783   1.404       .  A
C783        C784   1.384       .  A
C783       Br790   1.909       .  S
C784        C785   1.401       .  A
C784       Br789   1.939       .  S
C785        C786   1.407       .  A
C786       Br787   1.914       .  S
C791        C792   1.402       .  A
C791        C796   1.387       .  A
C791       Br798   1.934       .  S
C792        C793   1.409       .  A
C793        C794   1.387       .  A
C793       Br800   1.946       .  S
C794        C795   1.409       .  A
C794       Br799   1.935       .  S
C795        C796   1.412       .  A
C796       Br797   1.945       .  S
C801        C802   1.424       .  A
C801        C806   1.388       .  A
C801       Br808   1.926       .  S
C802        C803   1.420   1_655  A
C803        C804   1.394       .  A
C803       Br810   1.939       .  S
C804        C805   1.400   1_455  A
C804       Br809   1.935       .  S
C805        C806   1.386       .  A
C806       Br807   1.929       .  S
C811        C812   1.414   1_655  A
C811        C816   1.410       .  A
C811       Br818   1.921       .  S
C812        C813   1.421       .  A
C813        C814   1.423       .  A
C813       Br820   1.930       .  S
C814        C815   1.422       .  A
C814       Br819   1.923       .  S
C815        C816   1.416   1_455  A
C816       Br817   1.933       .  S
C821        C822   1.428       .  A
C821        C826   1.407       .  A
C821       Br828   1.930       .  S
C822        C823   1.420       .  A
C823        C824   1.408       .  A
C823       Br830   1.936       .  S
C824        C825   1.407       .  A
C824       Br829   1.932       .  S
C825        C826   1.400       .  A
C826       Br827   1.937       .  S
C831        C832   1.413       .  A
C831        C836   1.401       .  A
C831       Br838   1.933       .  S
C832        C833   1.422       .  A
C833        C834   1.398       .  A
C833       Br840   1.944       .  S
C834        C835   1.409       .  A
C834       Br839   1.937       .  S
C835        C836   1.412       .  A
C836       Br837   1.938       .  S
C841        C842   1.424       .  A
C841        C846   1.421       .  A
C841       Br848   1.923       .  S
C842       C1143   1.429   1_455  A
C843       C1142   1.432   1_654  A
C843        C844   1.432       .  A
C843       Br850   1.927       .  S
C844       C1145   1.413   1_655  A
C844       Br849   1.926       .  S
C845       C1144   1.410   1_455  A
C845        C846   1.411       .  A
C846       Br847   1.924       .  S
C851       C1152   1.401       .  A
C851        C856   1.393       .  A
C851       Br858   1.929       .  S
C852       C1151   1.405       .  A
C852        C853   1.403   1_455  A
C853        C854   1.403       .  A
C853       Br860   1.930       .  S
C854        C855   1.424   1_655  A
C854       Br859   1.932       .  S
C855       C1156   1.413   1_556  A
C856       C1155   1.410   1_455  A
C856       Br857   1.933       .  S
C861       C1162   1.422       .  A
C861        C866   1.411       .  A
C861       Br868   1.935       .  S
C862       C1161   1.418       .  A
C862        C863   1.414       .  A
C863        C864   1.408       .  A
C863       Br870   1.935       .  S
C864        C865   1.408       .  A
C864       Br869   1.919       .  S
C865        C923   1.487       .  S
C865       C1166   1.418       .  A
C866       C1165   1.418       .  A
C866       Br867   1.941       .  S
C871       C1172   1.421       .  A
C871        C876   1.429       .  A
C871       Br878   1.923       .  S
C872       C1171   1.419       .  A
C872        C873   1.414   1_556  A
C873        C874   1.409       .  A
C873       Br880   1.928       .  S
C874        C875   1.423   1_554  A
C874       Br879   1.943       .  S
C875       C1176   1.418       .  A
C876       C1175   1.418       .  A
C876       Br877   1.920       .  S
C881        C882   1.438       .  A
C881        C886   1.404       .  A
C881       Br888   1.938       .  S
C882        C883   1.436       .  A
C883        C884   1.411       .  A
C883       Br890   1.944   1_655  S
C884        C885   1.390       .  A
C884       Br889   1.922       .  S
C885        C886   1.384       .  A
C886       Br887   1.919       .  S
C891        C892   1.407       .  A
C891        C896   1.398       .  A
C891       Br898   1.931       .  S
C892        C893   1.429   1_655  A
C893        C894   1.399       .  A
C893       Br900   1.881       .  S
C894        C895   1.379       .  A
C894       Br899   1.921       .  S
C895        C896   1.409   1_455  A
C896       Br897   1.903       .  S
Zn901       O905   1.839       .  S
Zn901       O906   2.051       .  S
Zn901       O910   2.156       .  S
Zn901       O917   2.059   1_455  S
Zn902       O905   1.951       .  S
Zn902       O907   1.961       .  S
Zn902       O909   1.921       .  S
Zn902       O913   1.984       .  S
Zn903       O908   1.955       .  S
Zn903       O911   2.158       .  S
Zn903       O914   1.999   1_455  S
Zn904       O912   1.986       .  S
Zn904       O915   1.953       .  S
Zn904       O916   1.982   1_556  S
O906        C918   1.293       .  A
O907        C919   1.263       .  A
O908        C920   1.265   1_556  A
O909        C918   1.256       .  A
O912        C921   1.246       .  A
O913        C922   1.267   1_455  A
O914        C921   1.267       .  A
O916        C923   1.261       .  A
C918       C1195   1.479       .  S
C919       C1175   1.527       .  S
C920       C1145   1.521       .  S
C921       C1185   1.431       .  S
C922       C1152   1.445   1_655  S
Zn924       O928   1.946   1_455  S
Zn924       O929   2.008   1_455  S
Zn924       O933   1.899       .  S
Zn924       O940   1.998       .  S
Zn925       O928   1.966       .  S
Zn925       O930   2.000       .  S
Zn925       O932   2.001       .  S
Zn925       O936   2.078       .  S
Zn926       O928   1.954       .  S
Zn926       O931   1.924       .  S
Zn926       O934   2.040       .  S
Zn926       O937   2.040   1_655  S
Zn927       O928   1.977   1_455  S
Zn927       O935   2.046       .  S
Zn927       O938   2.087       .  S
Zn927       O939   1.955       .  S
O929        C941   1.263       .  A
O930        C942   1.269       .  A
O931        C943   1.255       .  A
O932        C941   1.262       .  A
O933        C943   1.252   1_455  A
O934        C942   1.272       .  A
O935        C944   1.266       .  A
O936        C945   1.276       .  A
O937        C944   1.259       .  A
O938        C945   1.277   1_455  A
O939        C946   1.258       .  A
O940        C946   1.259       .  A
C941       C1192   1.474   1_655  S
C942       C1122   1.490       .  S
C943       C1105   1.431       .  S
C944       C1182   1.453   1_455  S
C945       C1115   1.510       .  S
C946       C1132   1.484       .  S
Zn947       O952   2.045       .  S
Zn947       O956   2.193       .  S
Zn947       O963   2.086       .  S
Zn948       O951   1.989       .  S
Zn948       O953   2.040       .  S
Zn948       O955   2.074       .  S
Zn948       O959   2.159       .  S
Zn949       O951   2.089       .  S
Zn949       O954   1.972       .  S
Zn949       O957   1.991       .  S
Zn949       O960   2.047       .  S
Zn950       O958   1.994   1_556  S
Zn950       O961   1.937   1_556  S
Zn950       O962   2.014       .  S
O953        C965   1.258       .  A
O954        C966   1.266       .  A
O955        C964   1.270       .  A
O957        C965   1.257       .  A
O959        C968   1.282       .  A
O960        C967   1.275       .  A
O962        C969   1.260       .  A
O963        C969   1.264       .  A
C964       C1172   1.524       .  S
C965       C1092   1.413       .  S
C967       C1162   1.500       .  S
C968       C1072   1.512       .  S
C969       C1085   1.429       .  S
Zn970       O974   1.963       .  S
Zn970       O975   2.072       .  S
Zn970       O979   2.175       .  S
Zn970       O986   2.013       .  S
Zn971       O974   2.004       .  S
Zn971       O976   1.965       .  S
Zn971       O978   2.025       .  S
Zn971       O982   1.932       .  S
Zn972       O974   2.035       .  S
Zn972       O977   1.939       .  S
Zn972       O980   1.978       .  S
Zn972       O983   2.004       .  S
Zn973       O974   1.940       .  S
Zn973       O981   2.038       .  S
Zn973       O984   2.108       .  S
Zn973       O985   1.970       .  S
O975        C987   1.263       .  A
O976        C988   1.268       .  A
O977        C989   1.258       .  A
O978        C987   1.257       .  A
O979        C989   1.285       .  A
O980        C988   1.266       .  A
O981        C990   1.253       .  A
O982        C991   1.257       .  A
O983        C990   1.258       .  A
O984        C991   1.275       .  A
O985        C992   1.257       .  A
O986        C992   1.262       .  A
C987       C1082   1.428       .  S
C988       C1135   1.467       .  S
C989       C1052   1.511       .  S
C990       C1095   1.415       .  S
C991       C1042   1.496       .  S
C992       C1125   1.468       .  S
C993       C1035   1.623       .  S
C993       C1155   1.480   1_445  S
C994       C1022   1.650       .  S
C994       C1142   1.553       .  S
C995       C1025   1.653       .  S
C995       C1112   1.525       .  S
C996       C1032   1.629       .  S
C996       C1102   1.466       .  S
C997       C1012   1.616       .  S
C997       C1075   1.521       .  S
C998       C1002   1.620       .  S
C998       C1065   1.523       .  S
C999       C1005   1.618       .  S
C999       C1055   1.512       .  S
C1000      C1015   1.617       .  S
C1000      C1045   1.514       .  S
C1001      C1006   1.452       .  A
C1001     Br1008   1.930       .  S
C1002      C1003   1.448       .  A
C1003      C1004   1.454       .  A
C1003     Br1010   1.929       .  S
C1004     Br1009   1.929       .  S
C1005      C1006   1.447       .  A
C1006     Br1007   1.928       .  S
C1011      C1012   1.448       .  A
C1011      C1016   1.453       .  A
C1011     Br1018   1.929       .  S
C1013      C1014   1.452       .  A
C1013     Br1020   1.928       .  S
C1014      C1015   1.448       .  A
C1014     Br1019   1.930       .  S
C1016     Br1017   1.929       .  S
C1021      C1026   1.466       .  A
C1021     Br1028   1.929       .  S
C1022      C1023   1.441       .  A
C1023      C1024   1.462       .  A
C1023     Br1030   1.926       .  S
C1024     Br1029   1.925       .  S
C1025      C1026   1.449   1_465  A
C1026     Br1027   1.923       .  S
C1031      C1036   1.457       .  A
C1031     Br1038   1.924       .  S
C1032      C1033   1.453       .  A
C1033      C1034   1.458       .  A
C1033     Br1040   1.922       .  S
C1034     Br1039   1.932       .  S
C1035      C1036   1.449   1_445  A
C1036     Br1037   1.927       .  S
C1041      C1042   1.410       .  A
C1041      C1046   1.410       .  A
C1041     Br1048   1.935       .  S
C1042      C1043   1.424       .  A
C1043      C1044   1.411       .  A
C1043     Br1050   1.940       .  S
C1044      C1045   1.418       .  A
C1044     Br1049   1.936       .  S
C1045      C1046   1.425       .  A
C1046     Br1047   1.931       .  S
C1051      C1052   1.412       .  A
C1051      C1056   1.413       .  A
C1051     Br1058   1.918       .  S
C1052      C1053   1.429       .  A
C1053      C1054   1.411       .  A
C1053     Br1060   1.939       .  S
C1054      C1055   1.414       .  A
C1054     Br1059   1.938       .  S
C1055      C1056   1.421       .  A
C1056     Br1057   1.932       .  S
C1061      C1066   1.416       .  A
C1061     Br1068   1.934       .  S
C1062      C1063   1.412       .  A
C1063      C1064   1.417       .  A
C1063     Br1070   1.909       .  S
C1064      C1065   1.422       .  A
C1064     Br1069   1.933       .  S
C1066     Br1067   1.936       .  S
C1071      C1072   1.409       .  A
C1071      C1076   1.415       .  A
C1071     Br1078   1.921       .  S
C1073      C1074   1.412       .  A
C1073     Br1080   1.934   1_554  S
C1074     Br1079   1.937   1_554  S
C1075      C1076   1.426       .  A
C1076     Br1077   1.932       .  S
C1081      C1082   1.404       .  A
C1081      C1086   1.386       .  A
C1081     Br1088   1.946       .  S
C1082      C1083   1.407       .  A
C1083      C1084   1.384       .  A
C1083     Br1090   1.916       .  S
C1084      C1085   1.403       .  A
C1084     Br1089   1.939       .  S
C1085      C1086   1.405       .  A
C1086     Br1087   1.911       .  S
C1091      C1092   1.402       .  A
C1091      C1096   1.388       .  A
C1091     Br1098   1.935       .  S
C1092      C1093   1.408       .  A
C1093      C1094   1.387       .  A
C1093     Br1100   1.950       .  S
C1094      C1095   1.410       .  A
C1094     Br1099   1.930       .  S
C1095      C1096   1.411       .  A
C1096     Br1097   1.943       .  S
C1101      C1102   1.418   1_655  A
C1101      C1106   1.388       .  A
C1101     Br1108   1.930       .  S
C1102      C1103   1.418       .  A
C1103      C1104   1.390       .  A
C1103     Br1110   1.939       .  S
C1104      C1105   1.403   1_455  A
C1104     Br1109   1.937       .  S
C1105      C1106   1.396       .  A
C1106     Br1107   1.933       .  S
C1111      C1112   1.417   1_655  A
C1111      C1116   1.411       .  A
C1111     Br1118   1.920       .  S
C1112      C1113   1.424       .  A
C1113      C1114   1.423       .  A
C1113     Br1120   1.930       .  S
C1114      C1115   1.416   1_455  A
C1114     Br1119   1.931       .  S
C1115      C1116   1.411       .  A
C1116     Br1117   1.932       .  S
C1121      C1122   1.420       .  A
C1121      C1126   1.405       .  A
C1121     Br1128   1.923       .  S
C1122      C1123   1.419       .  A
C1123      C1124   1.407       .  A
C1123     Br1130   1.936       .  S
C1124      C1125   1.407       .  A
C1124     Br1129   1.932       .  S
C1125      C1126   1.402       .  A
C1126     Br1127   1.935       .  S
C1131      C1132   1.421       .  A
C1131      C1136   1.400       .  A
C1131     Br1138   1.939       .  S
C1132      C1133   1.418       .  A
C1133      C1134   1.399       .  A
C1133     Br1140   1.939       .  S
C1134      C1135   1.410       .  A
C1134     Br1139   1.935       .  S
C1135      C1136   1.407       .  A
C1136     Br1137   1.939       .  S
C1141      C1142   1.423       .  A
C1141      C1146   1.424       .  A
C1141     Br1148   1.920       .  S
C1143      C1144   1.427       .  A
C1143     Br1150   1.928       .  S
C1144     Br1149   1.922       .  S
C1145      C1146   1.416   1_554  A
C1146     Br1147   1.932       .  S
C1151      C1156   1.402   1_556  A
C1151     Br1158   1.933   1_556  S
C1152      C1153   1.400   1_455  A
C1153      C1154   1.398       .  A
C1153     Br1160   1.928       .  S
C1154      C1155   1.422       .  A
C1154     Br1159   1.933       .  S
C1156     Br1157   1.929       .  S
C1161      C1166   1.405       .  A
C1161     Br1168   1.938   1_554  S
C1162      C1163   1.416       .  A
C1163      C1164   1.412       .  A
C1163     Br1170   1.936       .  S
C1164      C1165   1.410       .  A
C1164     Br1169   1.917       .  S
C1166     Br1167   1.936   1_554  S
C1171      C1176   1.422       .  A
C1171     Br1178   1.925       .  S
C1172      C1173   1.414       .  A
C1173      C1174   1.414       .  A
C1173     Br1180   1.925       .  S
C1174      C1175   1.424       .  A
C1174     Br1179   1.939       .  S
C1176     Br1177   1.924       .  S
C1181      C1182   1.428       .  A
C1181      C1186   1.401       .  A
C1181     Br1188   1.940       .  S
C1182      C1183   1.419       .  A
C1183      C1184   1.403       .  A
C1183     Br1190   1.946   1_655  S
C1184      C1185   1.398       .  A
C1184     Br1189   1.928       .  S
C1185      C1186   1.389       .  A
C1186     Br1187   1.922       .  S
C1191      C1192   1.444   1_655  A
C1191      C1196   1.403   1_655  A
C1191     Br1198   1.951       .  S
C1192      C1193   1.450       .  A
C1193      C1194   1.410       .  A
C1193     Br1200   1.967       .  S
C1194      C1195   1.381       .  A
C1194     Br1199   1.912       .  S
C1195      C1196   1.390       .  A
C1196     Br1197   1.918       .  S
