geometry optimzed in LAMMPS
_audit_creation_date              2020-11-30 
_audit_creation_method            'lammps2cif' 
_symmetry_space_group_name_H-M    'P1' 
_symmetry_Int_Tables_number       1 
_symmetry_cell_setting            triclinic 
loop_ 
_symmetry_equiv_pos_as_xyz 
  x,y,z 
_cell_length_a                    25.86996993 
_cell_length_b                    25.875714347001512 
_cell_length_c                    31.79529798791352 
_cell_angle_alpha                 89.99662854682781 
_cell_angle_beta                  89.99923075347907 
_cell_angle_gamma                 90.00544862839386 
loop_ 
_atom_site_label 
_atom_site_type_symbol 
_atom_site_fract_x 
_atom_site_fract_y 
_atom_site_fract_z 
_atom_site_charge 
C1          C  0.36461939  0.88502079  0.95820345     0.85600
C2          C  0.34095334  0.86588115  0.99949108    -0.54600
C3          C  0.36346389  0.88562494  0.03472774     0.08500
C4          C  0.40855261  0.92283501  0.02535186     0.19500
C5          C  0.36256157  0.94431139  0.96090429    -0.55300
C6          C  0.38550626  0.96427684  0.99578619     0.08600
C7          C  0.42266876  0.87229831  0.96124109    -0.54900
C8          C  0.44561548  0.89200971  0.99674896     0.09200
H9          H  0.30732845  0.84066874  0.00066603     0.13700
H10         H  0.42709605  0.93938624  0.05385618    -0.00500
H11         H  0.34381687  0.96846215  0.93743805     0.14000
H12         H  0.44396681  0.85166183  0.93707828     0.13800
C13         C  0.58319348  0.88500236  0.04223605     0.85600
C14         C  0.60686690  0.86581883  0.00097138    -0.54600
C15         C  0.58440013  0.88554836  0.96571352     0.08500
C16         C  0.53931401  0.92276815  0.97504045     0.19500
C17         C  0.58528045  0.94429898  0.03948614    -0.55300
C18         C  0.56236067  0.96423658  0.00457468     0.08600
C19         C  0.52514011  0.87229809  0.03918781    -0.54900
C20         C  0.50222058  0.89198629  0.00365842     0.09200
H21         H  0.64049616  0.84061722  0.99982673     0.13700
H22         H  0.52079390  0.93929189  0.94651559    -0.00500
H23         H  0.60402218  0.96846809  0.06293943     0.14000
H24         H  0.50381738  0.85169887  0.06336271     0.13800
C25         C  0.58322393  0.09975064  0.95808079     0.85600
C26         C  0.60688978  0.11894548  0.99934472    -0.54600
C27         C  0.58440805  0.09922984  0.03460239     0.08500
C28         C  0.53931510  0.06200700  0.02527356     0.19500
C29         C  0.58529886  0.04045709  0.96083917    -0.55300
C30         C  0.56236662  0.02052900  0.99575053     0.08600
C31         C  0.52517306  0.11246041  0.96111415    -0.54900
C32         C  0.50223545  0.09278621  0.99664151     0.09200
H33         H  0.64052108  0.14414917  0.00048976     0.13700
H34         H  0.52078281  0.04549160  0.05379810    -0.00500
H35         H  0.60404221  0.01628314  0.93739233     0.14000
H36         H  0.50386787  0.13306821  0.93693755     0.13800
C37         C  0.36467858  0.09981795  0.04217251     0.85600
C38         C  0.34096419  0.11897641  0.00091512    -0.54600
C39         C  0.36340858  0.09924156  0.96565183     0.08500
C40         C  0.40851213  0.06202776  0.97497341     0.19500
C41         C  0.36260278  0.04052738  0.03945709    -0.55300
C42         C  0.38550091  0.02057442  0.00455013     0.08600
C43         C  0.42272752  0.11253294  0.03908971    -0.54900
C44         C  0.44562768  0.09282706  0.00356016     0.09200
H45         H  0.30733542  0.14418079  0.99978063     0.13700
H46         H  0.42701174  0.04548753  0.94644656    -0.00500
H47         H  0.34388995  0.01636739  0.06293697     0.14000
H48         H  0.44406450  0.13314046  0.06324867     0.13800
In49       In  0.29079985  0.87384484  0.15040630     1.36900
C50         C  0.27903275  0.97380448  0.15559340     0.76700
O51         O  0.28094620  0.87959155  0.22021187    -0.61700
O52         O  0.34207491  0.83256662  0.19686447    -0.52600
C53         C  0.21974470  0.80184578  0.14188115     0.69400
O54         O  0.20828743  0.84905216  0.14619843    -0.47500
C55         C  0.33969124  0.87829751  0.07656933     0.74100
O56         O  0.24142459  0.94488115  0.14607371    -0.59400
O57         O  0.36412837  0.88030014  0.11093974    -0.49500
O58         O  0.32115914  0.95130628  0.16319787    -0.55800
C59         C  0.31815658  0.85002025  0.22859340     0.84300
O60         O  0.26751619  0.79179579  0.14090640    -0.57700
O61         O  0.29181638  0.87109253  0.08041362    -0.61000
In62       In  0.27943964  0.12984880  0.14957554     1.36900
C63         C  0.27623167  0.02965884  0.15607700     0.76700
O64         O  0.28659448  0.11141440  0.08188865    -0.61700
O65         O  0.35459604  0.13791434  0.11264668    -0.52600
C66         C  0.20529444  0.19894100  0.14056403     0.69400
O67         O  0.19591038  0.15144732  0.14519227    -0.47500
C68         C  0.30251961  0.15201259  0.22828938     0.74100
O69         O  0.23667920  0.05490250  0.14479994    -0.59400
O70         O  0.32735447  0.17112458  0.19769615    -0.49500
O71         O  0.31534354  0.05601424  0.16605953    -0.55800
C72         C  0.33476199  0.11844794  0.07989687     0.84300
O73         O  0.25250862  0.21055224  0.13737984    -0.57700
O74         O  0.26634783  0.12179766  0.21849002    -0.61000
In75       In  0.61155113  0.79791972  0.35089771     1.36900
C76         C  0.51134562  0.79458109  0.34447563     0.76700
O77         O  0.59314002  0.80522253  0.41859256    -0.61700
O78         O  0.61957598  0.87315970  0.38773687    -0.52600
C79         C  0.68057159  0.72369263  0.35991231     0.69400
O80         O  0.63306063  0.71438117  0.35526168    -0.47500
C81         C  0.63364190  0.82095851  0.27213922     0.74100
O82         O  0.53664111  0.75510867  0.35584445    -0.59400
O83         O  0.65284784  0.84575592  0.30271101    -0.49500
O84         O  0.53765765  0.83366760  0.33436286    -0.55800
C85         C  0.60013355  0.85338764  0.42052308     0.84300
O86         O  0.69224523  0.77088152  0.36311013    -0.57700
O87         O  0.60338514  0.78484259  0.28198289    -0.61000
In88       In  0.35550528  0.80906984  0.35020069     1.36900
C89         C  0.45548273  0.79733647  0.34499457     0.76700
O90         O  0.36126907  0.79919552  0.28039319    -0.61700
O91         O  0.31423391  0.86031535  0.30373275    -0.52600
C92         C  0.28352347  0.73798193  0.35875126     0.69400
O93         O  0.33074812  0.72655359  0.35444544    -0.47500
C94         C  0.35994219  0.85813259  0.42395835     0.74100
O95         O  0.42658798  0.75975770  0.35464195    -0.59400
O96         O  0.36194234  0.88247888  0.38954907    -0.49500
O97         O  0.43294789  0.83940551  0.33728693    -0.55800
C98         C  0.33171599  0.83641709  0.27200666     0.84300
O99         O  0.27344836  0.78573824  0.35970607    -0.57700
O100        O  0.35275565  0.81025617  0.42019207    -0.61000
In101      In  0.66856920  0.85494188  0.14959438     1.36900
C102        C  0.67187420  0.95512642  0.15594510     0.76700
O103        O  0.66132151  0.87333838  0.08189620    -0.61700
O104        O  0.59334345  0.84691769  0.11272642    -0.52600
C105        C  0.74274806  0.78587365  0.14062365     0.69400
O106        O  0.75210529  0.83336850  0.14526188    -0.47500
C107        C  0.64554531  0.83288110  0.22835893     0.74100
O108        O  0.71137836  0.92983769  0.14462681    -0.59400
O109        O  0.62070357  0.81371280  0.19779369    -0.49500
O110        O  0.63278028  0.92881881  0.16605982    -0.55800
C111        C  0.61314424  0.86635943  0.07994993     0.84300
O112        O  0.69554082  0.77424369  0.13740219    -0.57700
O113        O  0.68168552  0.86310926  0.21850720    -0.61000
In114      In  0.65734774  0.11092735  0.15016411     1.36900
C115        C  0.66909487  0.01097517  0.15537673     0.76700
O116        O  0.66724457  0.10509169  0.21996708    -0.61700
O117        O  0.60612386  0.15216399  0.19666582    -0.52600
C118        C  0.72840468  0.18294243  0.14165549     0.69400
O119        O  0.73986569  0.13572810  0.14591137    -0.47500
C120        C  0.60828371  0.10652188  0.07640529     0.74100
O121        O  0.70669065  0.03987070  0.14576368    -0.59400
O122        O  0.58392311  0.10454978  0.11081120    -0.49500
O123        O  0.62699288  0.03349468  0.16302027    -0.55800
C124        C  0.63003936  0.13465697  0.22837730     0.84300
O125        O  0.68063216  0.19298753  0.14070996    -0.57700
O126        O  0.65617806  0.11366200  0.08017501    -0.61000
In127      In  0.33663803  0.18702579  0.35076511     1.36900
C128        C  0.43685246  0.19017321  0.34427546     0.76700
O129        O  0.35504961  0.17983561  0.41845850    -0.61700
O130        O  0.32852693  0.11187473  0.38767517    -0.52600
C131        C  0.26754274  0.26115742  0.35985047     0.69400
O132        O  0.31504274  0.27054403  0.35519519    -0.47500
C133        C  0.31446987  0.16397068  0.27204585     0.74100
O134        O  0.41162204  0.22974538  0.35551237    -0.59400
O135        O  0.29534765  0.13914351  0.30263713    -0.49500
O136        O  0.41047351  0.15107102  0.33432425    -0.55800
C137        C  0.34798436  0.13168160  0.42043903     0.84300
O138        O  0.25593207  0.21394992  0.36299970    -0.57700
O139        O  0.34468514  0.20013831  0.28184852    -0.61000
In140      In  0.59268840  0.17555079  0.34999535     1.36900
C141        C  0.49271613  0.18734336  0.34477439     0.76700
O142        O  0.58694696  0.18544474  0.28019601    -0.61700
O143        O  0.63392770  0.12426996  0.30351932    -0.52600
C144        C  0.66468281  0.24658936  0.35858541     0.69400
O145        O  0.61746016  0.25803056  0.35428964    -0.47500
C146        C  0.58818625  0.12674279  0.42386217     0.74100
O147        O  0.52166011  0.22494861  0.35424789    -0.59400
O148        O  0.58617200  0.10227862  0.38950754    -0.49500
O149        O  0.51520084  0.14519930  0.33723395    -0.55800
C150        C  0.61647712  0.14821139  0.27179919     0.84300
O151        O  0.67476367  0.19883020  0.35948184    -0.57700
O152        O  0.59544543  0.17459382  0.41998704    -0.61000
C153        C  0.58149060  0.88335395  0.45822745     0.85600
C154        C  0.60066501  0.85969696  0.49950344    -0.54600
C155        C  0.58092280  0.88217212  0.53475199     0.08500
C156        C  0.54368413  0.92723274  0.52540558     0.19500
C157        C  0.52218474  0.88126459  0.46095742    -0.55300
C158        C  0.50222367  0.90418180  0.49585492     0.08600
C159        C  0.59419150  0.94140059  0.46127403    -0.54900
C160        C  0.57448495  0.96431782  0.49680007     0.09200
H161        H  0.62588899  0.82608907  0.50066246     0.13700
H162        H  0.52713872  0.94574926  0.55392259    -0.00500
H163        H  0.49802220  0.86251829  0.43749874     0.14000
H164        H  0.61479885  0.96271825  0.43710139     0.13800
C165        C  0.36666874  0.88324769  0.54228219     0.85600
C166        C  0.34752262  0.85953442  0.50102201    -0.54600
C167        C  0.36724236  0.88200510  0.46576108     0.08500
C168        C  0.40442786  0.92712913  0.47508437     0.19500
C169        C  0.42597714  0.88123167  0.53955850    -0.55300
C170        C  0.44591419  0.90415077  0.50464825     0.08600
C171        C  0.35390176  0.94127158  0.53920737    -0.54900
C172        C  0.37358582  0.96419522  0.50367625     0.09200
H173        H  0.32233542  0.82589402  0.49988374     0.13700
H174        H  0.42095247  0.94564941  0.44655805    -0.00500
H175        H  0.45015664  0.86253281  0.56302755     0.14000
H176        H  0.33326568  0.96257599  0.56336904     0.13800
C177        C  0.58134014  0.10191492  0.54224488     0.85600
C178        C  0.60050001  0.12556953  0.50095835    -0.54600
C179        C  0.58080076  0.10302897  0.46571734     0.08500
C180        C  0.54360073  0.05793676  0.47508599     0.19500
C181        C  0.52203822  0.10392797  0.53950946    -0.55300
C182        C  0.50211274  0.08095833  0.50462445     0.08600
C183        C  0.59410628  0.04387987  0.53922668    -0.54900
C184        C  0.57443545  0.02091289  0.50370887     0.09200
H185        H  0.62570528  0.15919873  0.49978562     0.13700
H186        H  0.52707806  0.03937760  0.44657713    -0.00500
H187        H  0.49784963  0.12266208  0.56295551     0.14000
H188        H  0.61474005  0.02260676  0.56340720     0.13800
C189        C  0.36657936  0.10174609  0.45816638     0.85600
C190        C  0.34737226  0.12541787  0.49942516    -0.54600
C191        C  0.36708620  0.10295289  0.53469153     0.08500
C192        C  0.40433435  0.05788525  0.52536891     0.19500
C193        C  0.42587756  0.10383622  0.46091815    -0.55300
C194        C  0.44581226  0.08092804  0.49582617     0.08600
C195        C  0.35387420  0.04370156  0.46121781    -0.54900
C196        C  0.37355877  0.02079007  0.49675312     0.09200
H197        H  0.32214225  0.15902444  0.50055900     0.13700
H198        H  0.42086323  0.03937421  0.55389626    -0.00500
H199        H  0.45005756  0.12257186  0.43746221     0.14000
H200        H  0.33328225  0.02238136  0.43704235     0.13800
In201      In  0.27928808  0.85500319  0.85084256     1.36900
C202        C  0.27594349  0.95519874  0.84440031     0.76700
O203        O  0.28649234  0.87339408  0.91854089    -0.61700
O204        O  0.35447317  0.84695698  0.88772714    -0.52600
C205        C  0.20520718  0.78583279  0.85984398     0.69400
O206        O  0.19578250  0.83331637  0.85522175    -0.47500
C207        C  0.30242175  0.83290936  0.77211963     0.74100
O208        O  0.23643263  0.92989226  0.85569054    -0.59400
O209        O  0.32726495  0.81382071  0.80271411    -0.49500
O210        O  0.31507586  0.92890298  0.83438096    -0.55800
C211        C  0.33466361  0.86638464  0.92049988     0.84300
O212        O  0.25243011  0.77426678  0.86301800    -0.57700
O213        O  0.26620609  0.86306493  0.78192012    -0.61000
In214      In  0.29041962  0.11102510  0.85010239     1.36900
C215        C  0.27868937  0.01105728  0.84490297     0.76700
O216        O  0.28050041  0.10529225  0.78029015    -0.61700
O217        O  0.34166024  0.15229685  0.80361986    -0.52600
C218        C  0.21941792  0.18306476  0.85871122     0.69400
O219        O  0.20791716  0.13587109  0.85436111    -0.47500
C220        C  0.33950858  0.10654337  0.92385422     0.74100
O221        O  0.24107655  0.03994364  0.85447612    -0.59400
O222        O  0.36386055  0.10465371  0.88944046    -0.49500
O223        O  0.32078451  0.03359709  0.83725598    -0.55800
C224        C  0.31773164  0.13484175  0.77189704     0.84300
O225        O  0.26719793  0.19307379  0.85969179    -0.57700
O226        O  0.29160493  0.11363193  0.92009823    -0.61000
In227      In  0.35519022  0.17578041  0.65029747     1.36900
C228        C  0.45516112  0.18768269  0.65553380     0.76700
O229        O  0.36092135  0.18561383  0.72010644    -0.61700
O230        O  0.31384612  0.12453164  0.69674817    -0.52600
C231        C  0.28320642  0.24683208  0.64176671     0.69400
O232        O  0.33043020  0.25827539  0.64606437    -0.47500
C233        C  0.35970649  0.12677175  0.57650991     0.74100
O234        O  0.42620970  0.22521772  0.64590078    -0.59400
O235        O  0.36181017  0.10241342  0.61091014    -0.49500
O236        O  0.43268305  0.14556918  0.66321323    -0.55800
C237        C  0.33132301  0.14842093  0.72848253     0.84300
O238        O  0.27313038  0.19907441  0.64079727    -0.57700
O239        O  0.35235763  0.17461863  0.58030181    -0.61000
In240      In  0.61125347  0.18732312  0.64960525     1.36900
C241        C  0.51102792  0.19053073  0.65605901     0.76700
O242        O  0.59287650  0.18006024  0.58189538    -0.61700
O243        O  0.61935956  0.11213651  0.61274111    -0.52600
C244        C  0.68033506  0.26150415  0.64062739     0.69400
O245        O  0.63283338  0.27086239  0.64528762    -0.47500
C246        C  0.63348204  0.16416874  0.72830811     0.74100
O247        O  0.53627721  0.23005099  0.64471674    -0.59400
O248        O  0.65259387  0.13939955  0.69768671    -0.49500
O249        O  0.53739348  0.15147485  0.66614107    -0.55800
C250        C  0.59992774  0.13190377  0.57995260     0.84300
O251        O  0.69195117  0.21431013  0.63739352    -0.57700
O252        O  0.60323336  0.20032179  0.71854487    -0.61000
In253      In  0.33661338  0.79791584  0.64964912     1.36900
C254        C  0.43683303  0.79473367  0.65611358     0.76700
O255        O  0.35509077  0.80514450  0.58196929    -0.61700
O256        O  0.32854881  0.87308956  0.61275359    -0.52600
C257        C  0.26752712  0.72373635  0.64059701     0.69400
O258        O  0.31502681  0.71438237  0.64527919    -0.47500
C259        C  0.31440920  0.82097820  0.72836339     0.74100
O260        O  0.41158141  0.75519259  0.64482539    -0.59400
O261        O  0.29526831  0.84577570  0.69776579    -0.49500
O262        O  0.41047078  0.83381232  0.66614544    -0.55800
C263        C  0.34804345  0.85329941  0.57999817     0.84300
O264        O  0.25591067  0.77093490  0.63738849    -0.57700
O265        O  0.34467557  0.78485552  0.71856854    -0.61000
In266      In  0.59268376  0.80936143  0.65035290     1.36900
C267        C  0.49270054  0.79756025  0.65558444     0.76700
O268        O  0.58694471  0.79941024  0.72014377    -0.61700
O269        O  0.63396486  0.86057731  0.69683844    -0.52600
C270        C  0.66469133  0.73833572  0.64177937     0.69400
O271        O  0.61746856  0.72687989  0.64606790    -0.47500
C272        C  0.58824265  0.85835236  0.57657102     0.74100
O273        O  0.52162725  0.75999233  0.64599063    -0.59400
O274        O  0.58622889  0.88273465  0.61096255    -0.49500
O275        O  0.51520597  0.83967065  0.66322133    -0.55800
C276        C  0.61650559  0.83662188  0.72854875     0.84300
O277        O  0.67475747  0.78609700  0.64084923    -0.57700
O278        O  0.59544729  0.81048414  0.58036990    -0.61000
In279      In  0.65738508  0.87390939  0.85016910     1.36900
C280        C  0.66916719  0.97387473  0.84492115     0.76700
O281        O  0.66730151  0.87970977  0.78037323    -0.61700
O282        O  0.60616242  0.83264877  0.80367825    -0.52600
C283        C  0.72842146  0.80189687  0.85873502     0.69400
O284        O  0.73989477  0.84910838  0.85446446    -0.47500
C285        C  0.60829040  0.87828636  0.92391405     0.74100
O286        O  0.70674462  0.94497702  0.85456254    -0.59400
O287        O  0.58394504  0.88028585  0.88950274    -0.49500
O288        O  0.62706360  0.95135139  0.83727466    -0.55800
C289        C  0.63008394  0.85015240  0.77196733     0.84300
O290        O  0.68064686  0.79185044  0.85964500    -0.57700
O291        O  0.65618438  0.87115073  0.92015421    -0.61000
In292      In  0.66862442  0.12992590  0.85075650     1.36900
C293        C  0.67196069  0.02973098  0.84433966     0.76700
O294        O  0.66136104  0.11141003  0.91843001    -0.61700
O295        O  0.59339480  0.13787077  0.88761200    -0.52600
C296        C  0.74272791  0.19908471  0.85983881     0.69400
O297        O  0.75214700  0.15162022  0.85508086    -0.47500
C298        C  0.64547800  0.15216304  0.77205381     0.74100
O299        O  0.71145653  0.05502905  0.85567581    -0.59400
O300        O  0.62067819  0.17124260  0.80267387    -0.49500
O301        O  0.63287624  0.05603720  0.83421359    -0.55800
C302        C  0.61318561  0.11839409  0.92037530     0.84300
O303        O  0.69550746  0.21062447  0.86310458    -0.57700
O304        O  0.68165340  0.12193854  0.78181830    -0.61000
C305        C  0.86664507  0.60179824  0.95829133     0.85600
C306        C  0.84749731  0.62549510  0.99955900    -0.54600
C307        C  0.86722005  0.60301214  0.03481377     0.08500
C308        C  0.90441590  0.55791311  0.02548147     0.19500
C309        C  0.92595212  0.60383691  0.96101496    -0.55300
C310        C  0.94589266  0.58091704  0.99592063     0.08600
C311        C  0.85389250  0.54376476  0.96136126    -0.54900
C312        C  0.87358268  0.52084339  0.99689103     0.09200
H313        H  0.82230034  0.65912535  0.00070768     0.13700
H314        H  0.92094714  0.53939344  0.05400367    -0.00500
H315        H  0.95013002  0.62255166  0.93754790     0.14000
H316        H  0.83326700  0.52245514  0.93719782     0.13800
C317        C  0.86662332  0.38326298  0.04236251     0.85600
C318        C  0.84742978  0.35962028  0.00108933    -0.54600
C319        C  0.86714368  0.38212177  0.96583921     0.08500
C320        C  0.90438470  0.42718998  0.97518568     0.19500
C321        C  0.92592503  0.38119858  0.03961720    -0.55300
C322        C  0.94586377  0.40414219  0.00472186     0.08600
C323        C  0.85390613  0.44130628  0.03933754    -0.54900
C324        C  0.87358962  0.46424911  0.00381060     0.09200
H325        H  0.82220094  0.32601109  0.99993251     0.13700
H326        H  0.92091325  0.44572710  0.94666811    -0.00500
H327        H  0.95010079  0.36245245  0.06306353     0.14000
H328        H  0.83329571  0.46259978  0.06351750     0.13800
C329        C  0.08140102  0.38326553  0.95827319     0.85600
C330        C  0.10057324  0.35956253  0.99953070    -0.54600
C331        C  0.08086526  0.38202791  0.03479540     0.08500
C332        C  0.04365924  0.42713032  0.02547609     0.19500
C333        C  0.02209706  0.38122374  0.96101317    -0.55300
C334        C  0.00216858  0.40413562  0.99592239     0.08600
C335        C  0.09415407  0.44129489  0.96133720    -0.54900
C336        C  0.07447787  0.46420728  0.99687263     0.09200
H337        H  0.12577326  0.32593310  0.00066515     0.13700
H338        H  0.02713978  0.44564432  0.05400436    -0.00500
H339        H  0.99791006  0.36251419  0.93755059     0.14000
H340        H  0.11476721  0.46260970  0.93716571     0.13800
C341        C  0.08145544  0.60177291  0.04233470     0.85600
C342        C  0.10062426  0.62543178  0.00105330    -0.54600
C343        C  0.08088993  0.60292986  0.96580899     0.08500
C344        C  0.04366100  0.55785859  0.97517012     0.19500
C345        C  0.02215109  0.60383904  0.03960825    -0.55300
C346        C  0.00219756  0.58090580  0.00471483     0.08600
C347        C  0.09417190  0.54373345  0.03930063    -0.54900
C348        C  0.07446998  0.52079807  0.00378473     0.09200
H349        H  0.12584537  0.65904803  0.99988765     0.13700
H350        H  0.02711835  0.53932279  0.94665870    -0.00500
H351        H  0.99798473  0.62258079  0.06306429     0.14000
H352        H  0.11479505  0.52243407  0.06347095     0.13800
In353      In  0.77937649  0.35491808  0.35085881     1.36900
C354        C  0.77608922  0.45511217  0.34441304     0.76700
O355        O  0.78651322  0.37337743  0.41855430    -0.61700
O356        O  0.85452694  0.34692158  0.38779910    -0.52600
C357        C  0.70527818  0.28575492  0.35981139     0.69400
O358        O  0.69586688  0.33324209  0.35519137    -0.47500
C359        C  0.80248767  0.33277579  0.27213924     0.74100
O360        O  0.73656096  0.42982498  0.35569413    -0.59400
O361        O  0.82734314  0.31370054  0.30273459    -0.49500
O362        O  0.81520249  0.42879554  0.33437672    -0.55800
C363        C  0.83468605  0.36639182  0.42054483     0.84300
O364        O  0.75249608  0.27418240  0.36303333    -0.57700
O365        O  0.76629207  0.36295654  0.28193908    -0.61000
In366      In  0.79062548  0.61094321  0.35017384     1.36900
C367        C  0.77887216  0.51097082  0.34495142     0.76700
O368        O  0.78074661  0.60521568  0.28036874    -0.61700
O369        O  0.84190782  0.65220343  0.30372759    -0.52600
C370        C  0.71965971  0.68302219  0.35874196     0.69400
O371        O  0.70813924  0.63582991  0.35441189    -0.47500
C372        C  0.83963209  0.60653863  0.42394303     0.74100
O373        O  0.74126446  0.53987071  0.35451023    -0.59400
O374        O  0.86401894  0.60460548  0.38954747    -0.49500
O375        O  0.82098852  0.53349622  0.33735093    -0.55800
C376        C  0.81798382  0.63476619  0.27199702     0.84300
O377        O  0.76744315  0.69301252  0.35971430    -0.57700
O378        O  0.79173051  0.61361138  0.42015951    -0.61000
In379      In  0.85542768  0.67576099  0.15043048     1.36900
C380        C  0.95541472  0.68752643  0.15568025     0.76700
O381        O  0.86113220  0.68560659  0.22023452    -0.61700
O382        O  0.81412962  0.62447212  0.19685781    -0.52600
C383        C  0.78338847  0.74675763  0.14183240     0.69400
O384        O  0.83059597  0.75823964  0.14618635    -0.47500
C385        C  0.85990468  0.62682626  0.07663234     0.74100
O386        O  0.92650302  0.72512155  0.14612159    -0.59400
O387        O  0.86184854  0.60241934  0.11101695    -0.49500
O388        O  0.93289133  0.64541674  0.16328627    -0.55800
C389        C  0.83157618  0.64837367  0.22859571     0.84300
O390        O  0.77335636  0.69899154  0.14086792    -0.57700
O391        O  0.85276684  0.67470340  0.08044082    -0.61000
In392      In  0.11150343  0.68706188  0.14971798     1.36900
C393        C  0.01128447  0.69031699  0.15619790     0.76700
O394        O  0.09306427  0.67987354  0.08202123    -0.61700
O395        O  0.11955398  0.61190854  0.11280922    -0.52600
C396        C  0.18059939  0.76122578  0.14071689     0.69400
O397        O  0.13310172  0.77058699  0.14539494    -0.47500
C398        C  0.13369520  0.66390890  0.22841626     0.74100
O399        O  0.03656082  0.72983862  0.14490016    -0.59400
O400        O  0.15280187  0.63911230  0.19780654    -0.49500
O401        O  0.03762250  0.65121891  0.16622292    -0.55800
C402        C  0.10009113  0.63171600  0.08004762     0.84300
O403        O  0.19221188  0.71402909  0.13748864    -0.57700
O404        O  0.10347997  0.70008283  0.21864087    -0.61000
In405      In  0.15729571  0.37372208  0.35021325     1.36900
C406        C  0.16912777  0.47367884  0.34500642     0.76700
O407        O  0.16718153  0.37953532  0.28041219    -0.61700
O408        O  0.10610645  0.33239696  0.30371632    -0.52600
C409        C  0.22838555  0.30176166  0.35873566     0.69400
O410        O  0.23982305  0.34897978  0.35445457    -0.47500
C411        C  0.10821605  0.37818711  0.42397367     0.74100
O412        O  0.20668770  0.44475474  0.35463866    -0.59400
O413        O  0.08386756  0.38022348  0.38956452    -0.49500
O414        O  0.12701763  0.45118349  0.33732607    -0.55800
C415        C  0.13001066  0.34992156  0.27200304     0.84300
O416        O  0.18061806  0.29168393  0.35970433    -0.57700
O417        O  0.15609060  0.37092876  0.42020305    -0.61000
In418      In  0.16873424  0.62973406  0.35087760     1.36900
C419        C  0.17195459  0.52953287  0.34446742     0.76700
O420        O  0.16143103  0.61132535  0.41855791    -0.61700
O421        O  0.09349849  0.63781749  0.38770313    -0.52600
C422        C  0.24290789  0.69882521  0.35991347     0.69400
O423        O  0.25228247  0.65134122  0.35522491    -0.47500
C424        C  0.14565605  0.65191881  0.27216544     0.74100
O425        O  0.21147609  0.55479045  0.35580358    -0.59400
O426        O  0.12085035  0.67104069  0.30276453    -0.49500
O427        O  0.13288648  0.55587782  0.33436746    -0.55800
C428        C  0.11326146  0.61836282  0.42048499     0.84300
O429        O  0.19569693  0.71041914  0.36314076    -0.57700
O430        O  0.18180411  0.62167513  0.28195525    -0.61000
In431      In  0.83661282  0.29775846  0.14965195     1.36900
C432        C  0.93683055  0.29450042  0.15609648     0.76700
O433        O  0.85503983  0.30510419  0.08197149    -0.61700
O434        O  0.82855868  0.37300724  0.11284561    -0.52600
C435        C  0.76754316  0.22357615  0.14054451     0.69400
O436        O  0.81504174  0.21422451  0.14522916    -0.47500
C437        C  0.81443840  0.32081292  0.22838013     0.74100
O438        O  0.91155764  0.25499397  0.14476222    -0.59400
O439        O  0.79526961  0.34559207  0.19778551    -0.49500
O440        O  0.91049124  0.33357604  0.16617159    -0.55800
C441        C  0.84801161  0.35326486  0.08005652     0.84300
O442        O  0.75591847  0.27077578  0.13737211    -0.57700
O443        O  0.84469928  0.28468899  0.21857711    -0.61000
In444      In  0.09267465  0.30910694  0.15036118     1.36900
C445        C  0.99269651  0.29730414  0.15557602     0.76700
O446        O  0.08692996  0.29913566  0.22016095    -0.61700
O447        O  0.13393376  0.36031829  0.19686877    -0.52600
C448        C  0.16467745  0.23808075  0.14175068     0.69400
O449        O  0.11745688  0.22662238  0.14604720    -0.47500
C450        C  0.08820021  0.35816944  0.07660189     0.74100
O451        O  0.02161595  0.25973981  0.14595812    -0.59400
O452        O  0.08620280  0.38251794  0.11100932    -0.49500
O453        O  0.01520805  0.33939992  0.16324938    -0.55800
C454        C  0.11646689  0.33636361  0.22857694     0.84300
O455        O  0.17474253  0.28584289  0.14083293    -0.57700
O456        O  0.09541105  0.31029841  0.08037264    -0.61000
C457        C  0.86460799  0.38506310  0.45826009     0.85600
C458        C  0.84091674  0.36593006  0.49953906    -0.54600
C459        C  0.86340550  0.38567793  0.53478276     0.08500
C460        C  0.90851324  0.42286951  0.52542580     0.19500
C461        C  0.86255629  0.44436197  0.46096619    -0.55300
C462        C  0.88548827  0.46432014  0.49586443     0.08600
C463        C  0.92265057  0.37233487  0.46131688    -0.54900
C464        C  0.94558370  0.39204500  0.49682751     0.09200
H465        H  0.80727436  0.34073867  0.50070272     0.13700
H466        H  0.92704793  0.43941175  0.55393828    -0.00500
H467        H  0.84383078  0.46851701  0.43749507     0.14000
H468        H  0.94395910  0.35169866  0.43715885     0.13800
C469        C  0.86471580  0.59988225  0.54226826     0.85600
C470        C  0.84103444  0.61903868  0.50099689    -0.54600
C471        C  0.86349664  0.59928109  0.46574883     0.08500
C472        C  0.90857372  0.56205777  0.47508922     0.19500
C473        C  0.86261411  0.54058643  0.53955472    -0.55300
C474        C  0.88551766  0.52061809  0.50465028     0.08600
C475        C  0.92277219  0.61257285  0.53920192    -0.54900
C476        C  0.94568078  0.59285546  0.50368002     0.09200
H477        H  0.80741307  0.64424968  0.49984099     0.13700
H478        H  0.92708359  0.54550744  0.44657009    -0.00500
H479        H  0.84387112  0.51643907  0.56302604     0.14000
H480        H  0.94410288  0.63318790  0.56335862     0.13800
C481        C  0.08327312  0.59976301  0.45818518     0.85600
C482        C  0.10695222  0.61894398  0.49944703    -0.54600
C483        C  0.08446146  0.59924357  0.53470486     0.08500
C484        C  0.03935657  0.56203202  0.52537667     0.19500
C485        C  0.08531534  0.54047284  0.46093275    -0.55300
C486        C  0.06237418  0.52055007  0.49583606     0.08600
C487        C  0.02522562  0.61250110  0.46122480    -0.54900
C488        C  0.00228606  0.59283012  0.49675641     0.09200
H489        H  0.14058488  0.64414686  0.50059095     0.13700
H490        H  0.02082353  0.54551790  0.55390194    -0.00500
H491        H  0.10404186  0.51629291  0.43748061     0.14000
H492        H  0.00392396  0.63311310  0.43704820     0.13800
C493        C  0.08315614  0.38503758  0.54230495     0.85600
C494        C  0.10682343  0.36582536  0.50104676    -0.54600
C495        C  0.08435873  0.38553962  0.46578182     0.08500
C496        C  0.03928764  0.42278852  0.47510557     0.19500
C497        C  0.08526168  0.44432427  0.53954663    -0.55300
C498        C  0.06234740  0.46425832  0.50463909     0.08600
C499        C  0.02510180  0.37234632  0.53926645    -0.54900
C500        C  0.00218636  0.39202730  0.50373478     0.09200
H501        H  0.14043608  0.34059991  0.49991151     0.13700
H502        H  0.02076959  0.43931171  0.44657884    -0.00500
H503        H  0.10400803  0.46849522  0.56299820     0.14000
H504        H  0.00377688  0.35176002  0.56344666     0.13800
In505      In  0.85525611  0.30940235  0.85020634     1.36900
C506        C  0.95522929  0.29760444  0.84499208     0.76700
O507        O  0.86103369  0.29956863  0.78040715    -0.61700
O508        O  0.81394756  0.36064971  0.80374731    -0.52600
C509        C  0.78330978  0.23827718  0.85871082     0.69400
O510        O  0.83054273  0.22688231  0.85440962    -0.47500
C511        C  0.85975531  0.35834460  0.92401123     0.74100
O512        O  0.92629792  0.26003508  0.85458928    -0.59400
O513        O  0.86181648  0.38274340  0.88962791    -0.49500
O514        O  0.93273267  0.33971046  0.83733809    -0.55800
C515        C  0.83144405  0.33675899  0.77202114     0.84300
O516        O  0.77320198  0.28602751  0.85969231    -0.57700
O517        O  0.85244070  0.31049465  0.92019357    -0.61000
In518      In  0.11131015  0.29795729  0.85088992     1.36900
C519        C  0.01109193  0.29478383  0.84446942     0.76700
O520        O  0.09294448  0.30517048  0.91858717    -0.61700
O521        O  0.11944005  0.37312547  0.88777671    -0.52600
C522        C  0.18031724  0.22372245  0.85988905     0.69400
O523        O  0.13280544  0.21440853  0.85523228    -0.47500
C524        C  0.13345849  0.32103860  0.77216608     0.74100
O525        O  0.03633664  0.25524543  0.85576271    -0.59400
O526        O  0.15264140  0.34581845  0.80275532    -0.49500
O527        O  0.03745715  0.33386244  0.83442793    -0.55800
C528        C  0.09999596  0.35332578  0.92055081     0.84300
O529        O  0.19198898  0.27090961  0.86309642    -0.57700
O530        O  0.10318570  0.28492046  0.78197468    -0.61000
In531      In  0.16848050  0.35508616  0.64967006     1.36900
C532        C  0.17179540  0.45527816  0.65604413     0.76700
O533        O  0.16126719  0.37343350  0.58197411    -0.61700
O534        O  0.09327713  0.34702950  0.61280731    -0.52600
C535        C  0.24259899  0.28597940  0.64062914     0.69400
O536        O  0.25199806  0.33346324  0.64529110    -0.47500
C537        C  0.14540602  0.33298293  0.72840381     0.74100
O538        O  0.21130907  0.42998194  0.64476081    -0.59400
O539        O  0.12056173  0.31386398  0.69782203    -0.49500
O540        O  0.13267587  0.42897580  0.66610098    -0.55800
C541        C  0.11309368  0.36643242  0.58002378     0.84300
O542        O  0.19538117  0.27438328  0.63744869    -0.57700
O543        O  0.18158714  0.36317913  0.71858507    -0.61000
In544      In  0.15732350  0.61108767  0.65028817     1.36900
C545        C  0.16903820  0.51113043  0.65549888     0.76700
O546        O  0.16721810  0.60524598  0.72008655    -0.61700
O547        O  0.10608572  0.65231117  0.69679249    -0.52600
C548        C  0.22838145  0.68310664  0.64174546     0.69400
O549        O  0.23984000  0.63589724  0.64604118    -0.47500
C550        C  0.10830438  0.60659581  0.57651397     0.74100
O551        O  0.20665506  0.54001901  0.64592430    -0.59400
O552        O  0.08391780  0.60468320  0.61091072    -0.49500
O553        O  0.12693622  0.53366115  0.66312057    -0.55800
C554        C  0.13000131  0.63479472  0.72850136     0.84300
O555        O  0.18060758  0.69314965  0.64078909    -0.57700
O556        O  0.15619593  0.61374302  0.58029907    -0.61000
In557      In  0.77942582  0.63007097  0.64964139     1.36900
C558        C  0.77610805  0.52989608  0.65610269     0.76700
O559        O  0.78661471  0.61156529  0.58196016    -0.61700
O560        O  0.85461128  0.63805291  0.61272403    -0.52600
C561        C  0.70530507  0.69919121  0.64061136     0.69400
O562        O  0.69590894  0.65170451  0.64526088    -0.47500
C563        C  0.80251352  0.65216191  0.72838043     0.74100
O564        O  0.73658795  0.55518060  0.64481176    -0.59400
O565        O  0.82735521  0.67129012  0.69779655    -0.49500
O566        O  0.81523162  0.55620609  0.66613358    -0.55800
C567        C  0.83478805  0.61855921  0.57997958     0.84300
O568        O  0.75252354  0.71078670  0.63741969    -0.57700
O569        O  0.76632576  0.62197724  0.71855928    -0.61000
In570      In  0.79056147  0.37408686  0.65039511     1.36900
C571        C  0.77886841  0.47404596  0.65558262     0.76700
O572        O  0.78065025  0.37987188  0.72020036    -0.61700
O573        O  0.84179953  0.33284765  0.69688864    -0.52600
C574        C  0.71948641  0.30211592  0.64182338     0.69400
O575        O  0.70803914  0.34932819  0.64611231    -0.47500
C576        C  0.83955576  0.37843375  0.57660194     0.74100
O577        O  0.74124006  0.44515693  0.64604809    -0.59400
O578        O  0.86394945  0.38040117  0.61099299    -0.49500
O579        O  0.82097982  0.45151691  0.66317657    -0.55800
C580        C  0.81787240  0.35032425  0.72860366     0.84300
O581        O  0.76725524  0.29204783  0.64090986    -0.57700
O582        O  0.79165841  0.37134424  0.58040335    -0.61000
In583      In  0.83661898  0.68709331  0.85088895     1.36900
C584        C  0.93682327  0.69024756  0.84441324     0.76700
O585        O  0.85507742  0.67989350  0.91858298    -0.61700
O586        O  0.82852836  0.61193824  0.88781439    -0.52600
C587        C  0.76755166  0.76126659  0.85990872     0.69400
O588        O  0.81506258  0.77062229  0.85529216    -0.47500
C589        C  0.81447044  0.66407380  0.77214923     0.74100
O590        O  0.91159501  0.72980400  0.85569005    -0.59400
O591        O  0.79532455  0.63924180  0.80273022    -0.49500
O592        O  0.91044547  0.65116628  0.83440377    -0.55800
C593        C  0.84802055  0.63173909  0.92056823     0.84300
O594        O  0.75591144  0.71406672  0.86307517    -0.57700
O595        O  0.84471236  0.70021041  0.78197332    -0.61000
In596      In  0.09264877  0.67559868  0.85013737     1.36900
C597        C  0.99268292  0.68740822  0.84492989     0.76700
O598        O  0.08686910  0.68551880  0.78034112    -0.61700
O599        O  0.13390125  0.62436867  0.80363710    -0.52600
C600        C  0.16462012  0.74666041  0.85867439     0.69400
O601        O  0.11738712  0.75808772  0.85443219    -0.47500
C602        C  0.08822634  0.62669878  0.92396925     0.74100
O603        O  0.02162607  0.72499031  0.85446466    -0.59400
O604        O  0.08615108  0.60228228  0.88959574    -0.49500
O605        O  0.01516384  0.64527612  0.83733932    -0.55800
C606        C  0.11642820  0.64831447  0.77192777     0.84300
O607        O  0.17471862  0.69890547  0.85956612    -0.57700
O608        O  0.09549562  0.67455282  0.92012881    -0.61000
loop_ 
_geom_bond_atom_site_label_1 
_geom_bond_atom_site_label_2 
_geom_bond_distance 
_geom_bond_site_symmetry_2 
_ccdc_geom_bond_type 
C1            C2   1.531       .  S
C1            C7   1.540       .  S
C1            C5   1.538       .  S
C1          C211   1.507       .  S
C2            H9   1.088   1_556  S
C2            C3   1.362   1_556  D
C3            C4   1.542       .  S
C3           C55   1.478       .  S
C4            C8   1.544   1_554  S
C4            C6   1.546   1_554  S
C4           H10   1.111       .  S
C5           H11   1.087       .  S
C5            C6   1.360       .  D
C6           C42   1.483   1_566  S
C7           H12   1.086       .  S
C7            C8   1.374       .  D
C8           C20   1.481   1_556  S
C13          C14   1.531       .  S
C13          C19   1.540       .  S
C13          C17   1.538       .  S
C13         C111   1.507       .  S
C14          H21   1.088   1_554  S
C14          C15   1.362   1_554  D
C15          C16   1.541       .  S
C15         C285   1.478       .  S
C16          C20   1.544   1_556  S
C16          C18   1.546   1_556  S
C16          H22   1.111       .  S
C17          H23   1.087       .  S
C17          C18   1.360       .  D
C18          C30   1.483   1_564  S
C19          H24   1.086       .  S
C19          C20   1.374       .  D
C25          C26   1.531       .  S
C25          C31   1.540       .  S
C25          C29   1.538       .  S
C25         C302   1.507       .  S
C26          H33   1.088   1_556  S
C26          C27   1.362   1_556  D
C27          C28   1.542       .  S
C27         C120   1.478       .  S
C28          C32   1.544   1_554  S
C28          C30   1.546   1_554  S
C28          H34   1.111       .  S
C29          H35   1.087       .  S
C29          C30   1.360       .  D
C31          H36   1.086       .  S
C31          C32   1.374       .  D
C32          C44   1.481   1_556  S
C37          C38   1.531       .  S
C37          C43   1.540       .  S
C37          C41   1.538       .  S
C37          C72   1.507       .  S
C38          H45   1.088   1_554  S
C38          C39   1.362   1_554  D
C39          C40   1.542       .  S
C39         C220   1.478       .  S
C40          C44   1.544   1_556  S
C40          C42   1.546   1_556  S
C40          H46   1.111       .  S
C41          H47   1.087       .  S
C41          C42   1.360       .  D
C43          H48   1.086       .  S
C43          C44   1.374       .  D
In49         O51   2.239       .  S
In49         O52   2.254       .  S
In49         O60   2.227       .  S
In49         O54   2.233       .  S
In49         O56   2.243       .  S
In49         O57   2.281       .  S
In49         O58   2.191       .  S
In49         O61   2.227       .  S
C50          O56   1.264       .  A
C50          O58   1.259       .  A
C50          C63   1.447   1_565  S
O51          C59   1.258       .  A
O52          C59   1.267       .  A
C53          O60   1.263       .  A
C53          O54   1.264       .  A
C53         C396   1.460       .  S
C55          O57   1.264       .  A
C55          O61   1.258       .  A
C59          C98   1.467       .  S
In62         O64   2.212       .  S
In62         O65   2.281       .  S
In62         O73   2.235       .  S
In62         O67   2.236       .  S
In62         O69   2.238       .  S
In62         O70   2.240       .  S
In62         O71   2.188       .  S
In62         O74   2.227       .  S
C63          O69   1.266       .  A
C63          O71   1.261       .  A
O64          C72   1.261       .  A
O65          C72   1.265       .  A
C66          O73   1.262       .  A
C66          O67   1.261       .  A
C66         C448   1.460       .  S
C68          O70   1.266       .  A
C68          O74   1.259       .  A
C68         C133   1.458       .  S
In75         O77   2.213       .  S
In75         O78   2.282       .  S
In75         O86   2.236       .  S
In75         O80   2.236       .  S
In75         O82   2.238       .  S
In75         O83   2.241       .  S
In75         O84   2.188       .  S
In75         O87   2.227       .  S
C76          O82   1.266       .  A
C76          O84   1.261       .  A
C76          C89   1.447       .  S
O77          C85   1.261       .  A
O78          C85   1.265       .  A
C79          O86   1.262       .  A
C79          O80   1.261       .  A
C79         C370   1.460       .  S
C81          O83   1.266       .  A
C81          O87   1.258       .  A
C81         C107   1.459       .  S
C85         C153   1.507       .  S
In88         O90   2.239       .  S
In88         O91   2.254       .  S
In88         O99   2.228       .  S
In88         O93   2.233       .  S
In88         O95   2.243       .  S
In88         O96   2.281       .  S
In88         O97   2.190       .  S
In88        O100   2.227       .  S
C89          O95   1.264       .  A
C89          O97   1.259       .  A
O90          C98   1.258       .  A
O91          C98   1.267       .  A
C92          O99   1.263       .  A
C92          O93   1.264       .  A
C92         C422   1.460       .  S
C94         C167   1.478       .  S
C94          O96   1.263       .  A
C94         O100   1.258       .  A
In101       O103   2.212       .  S
In101       O104   2.281       .  S
In101       O112   2.236       .  S
In101       O106   2.236       .  S
In101       O108   2.238       .  S
In101       O109   2.240       .  S
In101       O110   2.188       .  S
In101       O113   2.227       .  S
C102        O108   1.266       .  A
C102        O110   1.261       .  A
C102        C115   1.447   1_565  S
O103        C111   1.261       .  A
O104        C111   1.265       .  A
C105        O112   1.262       .  A
C105        O106   1.261       .  A
C105        C383   1.460       .  S
C107        O109   1.266       .  A
C107        O113   1.259       .  A
In114       O116   2.239       .  S
In114       O117   2.254       .  S
In114       O125   2.227       .  S
In114       O119   2.233       .  S
In114       O121   2.243       .  S
In114       O122   2.281       .  S
In114       O123   2.190       .  S
In114       O126   2.227       .  S
C115        O121   1.264       .  A
C115        O123   1.259       .  A
O116        C124   1.258       .  A
O117        C124   1.267       .  A
C118        O125   1.263       .  A
C118        O119   1.264       .  A
C118        C435   1.460       .  S
C120        O122   1.264       .  A
C120        O126   1.258       .  A
C124        C150   1.467       .  S
In127       O129   2.212       .  S
In127       O130   2.281       .  S
In127       O138   2.235       .  S
In127       O132   2.237       .  S
In127       O134   2.238       .  S
In127       O135   2.240       .  S
In127       O136   2.188       .  S
In127       O139   2.227       .  S
C128        O134   1.266       .  A
C128        O136   1.261       .  A
C128        C141   1.447       .  S
O129        C137   1.261       .  A
O130        C137   1.265       .  A
C131        O138   1.262       .  A
C131        O132   1.261       .  A
C131        C409   1.460       .  S
C133        O135   1.266       .  A
C133        O139   1.259       .  A
C137        C189   1.507       .  S
In140       O142   2.239       .  S
In140       O143   2.255       .  S
In140       O151   2.228       .  S
In140       O145   2.232       .  S
In140       O147   2.243       .  S
In140       O148   2.281       .  S
In140       O149   2.191       .  S
In140       O152   2.227       .  S
C141        O147   1.264       .  A
C141        O149   1.259       .  A
O142        C150   1.258       .  A
O143        C150   1.267       .  A
C144        O151   1.263       .  A
C144        O145   1.264       .  A
C144        C357   1.460       .  S
C146        C179   1.478       .  S
C146        O148   1.264       .  A
C146        O152   1.258       .  A
C153        C154   1.531       .  S
C153        C159   1.541       .  S
C153        C157   1.538       .  S
C154        H161   1.088       .  S
C154        C155   1.362       .  D
C155        C156   1.541       .  S
C155        C272   1.478       .  S
C156        C160   1.544       .  S
C156        C158   1.546       .  S
C156        H162   1.111       .  S
C157        H163   1.087       .  S
C157        C158   1.360       .  D
C158        C170   1.483       .  S
C159        H164   1.086       .  S
C159        C160   1.374       .  D
C160        C184   1.481   1_565  S
C165        C166   1.531       .  S
C165        C171   1.540       .  S
C165        C169   1.538       .  S
C165        C263   1.507       .  S
C166        H173   1.088       .  S
C166        C167   1.362       .  D
C167        C168   1.542       .  S
C168        C172   1.544       .  S
C168        C170   1.546       .  S
C168        H174   1.111       .  S
C169        H175   1.087       .  S
C169        C170   1.360       .  D
C171        H176   1.086       .  S
C171        C172   1.374       .  D
C172        C196   1.481   1_565  S
C177        C178   1.531       .  S
C177        C183   1.541       .  S
C177        C181   1.537       .  S
C177        C250   1.507       .  S
C178        H185   1.088       .  S
C178        C179   1.362       .  D
C179        C180   1.541       .  S
C180        C184   1.544       .  S
C180        C182   1.546       .  S
C180        H186   1.111       .  S
C181        H187   1.087       .  S
C181        C182   1.360       .  D
C182        C194   1.483       .  S
C183        H188   1.086       .  S
C183        C184   1.374       .  D
C189        C190   1.531       .  S
C189        C195   1.541       .  S
C189        C193   1.537       .  S
C190        H197   1.088       .  S
C190        C191   1.362       .  D
C191        C192   1.542       .  S
C191        C233   1.478       .  S
C192        C196   1.544       .  S
C192        C194   1.546       .  S
C192        H198   1.111       .  S
C193        H199   1.087       .  S
C193        C194   1.360       .  D
C195        H200   1.086       .  S
C195        C196   1.374       .  D
In201       O203   2.212       .  S
In201       O204   2.281       .  S
In201       O212   2.235       .  S
In201       O206   2.236       .  S
In201       O208   2.238       .  S
In201       O209   2.240       .  S
In201       O210   2.188       .  S
In201       O213   2.227       .  S
C202        O208   1.266       .  A
C202        O210   1.261       .  A
C202        C215   1.447   1_565  S
O203        C211   1.261       .  A
O204        C211   1.265       .  A
C205        O212   1.262       .  A
C205        O206   1.261       .  A
C205        C600   1.460       .  S
C207        O209   1.266       .  A
C207        O213   1.259       .  A
C207        C259   1.458       .  S
In214       O216   2.239       .  S
In214       O217   2.254       .  S
In214       O225   2.227       .  S
In214       O219   2.233       .  S
In214       O221   2.243       .  S
In214       O222   2.281       .  S
In214       O223   2.191       .  S
In214       O226   2.227       .  S
C215        O221   1.264       .  A
C215        O223   1.259       .  A
O216        C224   1.258       .  A
O217        C224   1.267       .  A
C218        O225   1.263       .  A
C218        O219   1.264       .  A
C218        C522   1.460       .  S
C220        O222   1.264       .  A
C220        O226   1.258       .  A
C224        C237   1.467       .  S
In227       O229   2.239       .  S
In227       O230   2.255       .  S
In227       O238   2.227       .  S
In227       O232   2.233       .  S
In227       O234   2.243       .  S
In227       O235   2.281       .  S
In227       O236   2.191       .  S
In227       O239   2.227       .  S
C228        O234   1.264       .  A
C228        O236   1.259       .  A
C228        C241   1.447       .  S
O229        C237   1.258       .  A
O230        C237   1.267       .  A
C231        O238   1.263       .  A
C231        O232   1.264       .  A
C231        C535   1.460       .  S
C233        O235   1.264       .  A
C233        O239   1.258       .  A
In240       O242   2.213       .  S
In240       O243   2.281       .  S
In240       O251   2.235       .  S
In240       O245   2.237       .  S
In240       O247   2.238       .  S
In240       O248   2.240       .  S
In240       O249   2.188       .  S
In240       O252   2.227       .  S
C241        O247   1.266       .  A
C241        O249   1.261       .  A
O242        C250   1.261       .  A
O243        C250   1.265       .  A
C244        O251   1.262       .  A
C244        O245   1.261       .  A
C244        C574   1.460       .  S
C246        O248   1.266       .  A
C246        O252   1.259       .  A
C246        C298   1.459       .  S
In253       O255   2.212       .  S
In253       O256   2.281       .  S
In253       O264   2.236       .  S
In253       O258   2.237       .  S
In253       O260   2.238       .  S
In253       O261   2.240       .  S
In253       O262   2.188       .  S
In253       O265   2.227       .  S
C254        O260   1.266       .  A
C254        O262   1.261       .  A
C254        C267   1.447       .  S
O255        C263   1.261       .  A
O256        C263   1.265       .  A
C257        O264   1.262       .  A
C257        O258   1.261       .  A
C257        C548   1.460       .  S
C259        O261   1.266       .  A
C259        O265   1.259       .  A
In266       O268   2.239       .  S
In266       O269   2.254       .  S
In266       O277   2.228       .  S
In266       O271   2.233       .  S
In266       O273   2.243       .  S
In266       O274   2.281       .  S
In266       O275   2.191       .  S
In266       O278   2.226       .  S
C267        O273   1.264       .  A
C267        O275   1.259       .  A
O268        C276   1.258       .  A
O269        C276   1.267       .  A
C270        O277   1.263       .  A
C270        O271   1.264       .  A
C270        C561   1.460       .  S
C272        O274   1.264       .  A
C272        O278   1.258       .  A
C276        C289   1.467       .  S
In279       O281   2.239       .  S
In279       O282   2.254       .  S
In279       O290   2.227       .  S
In279       O284   2.233       .  S
In279       O286   2.243       .  S
In279       O287   2.281       .  S
In279       O288   2.191       .  S
In279       O291   2.227       .  S
C280        O286   1.264       .  A
C280        O288   1.259       .  A
C280        C293   1.447   1_565  S
O281        C289   1.258       .  A
O282        C289   1.267       .  A
C283        O290   1.263       .  A
C283        O284   1.264       .  A
C283        C587   1.460       .  S
C285        O287   1.264       .  A
C285        O291   1.258       .  A
In292       O294   2.212       .  S
In292       O295   2.281       .  S
In292       O303   2.236       .  S
In292       O297   2.237       .  S
In292       O299   2.238       .  S
In292       O300   2.240       .  S
In292       O301   2.188       .  S
In292       O304   2.227       .  S
C293        O299   1.266       .  A
C293        O301   1.261       .  A
O294        C302   1.261       .  A
O295        C302   1.265       .  A
C296        O303   1.262       .  A
C296        O297   1.261       .  A
C296        C509   1.460       .  S
C298        O300   1.266       .  A
C298        O304   1.259       .  A
C305        C306   1.531       .  S
C305        C311   1.541       .  S
C305        C309   1.538       .  S
C305        C593   1.507       .  S
C306        H313   1.088   1_556  S
C306        C307   1.362   1_556  D
C307        C308   1.541       .  S
C307        C385   1.478       .  S
C308        C312   1.544   1_554  S
C308        C310   1.546   1_554  S
C308        H314   1.111       .  S
C309        H315   1.087       .  S
C309        C310   1.360       .  D
C310        C346   1.483   1_656  S
C311        H316   1.086       .  S
C311        C312   1.374       .  D
C312        C324   1.481   1_556  S
C317        C318   1.531       .  S
C317        C323   1.541       .  S
C317        C321   1.538       .  S
C317        C441   1.507       .  S
C318        H325   1.088   1_554  S
C318        C319   1.362   1_554  D
C319        C320   1.542       .  S
C319        C511   1.478       .  S
C320        C324   1.544   1_556  S
C320        C322   1.546   1_556  S
C320        H326   1.111       .  S
C321        H327   1.087       .  S
C321        C322   1.360       .  D
C322        C334   1.483   1_654  S
C323        H328   1.086       .  S
C323        C324   1.374       .  D
C329        C330   1.531       .  S
C329        C335   1.540       .  S
C329        C333   1.538       .  S
C329        C528   1.507       .  S
C330        H337   1.088   1_556  S
C330        C331   1.362   1_556  D
C331        C332   1.542       .  S
C331        C450   1.478       .  S
C332        C336   1.544   1_554  S
C332        C334   1.546   1_554  S
C332        H338   1.111       .  S
C333        H339   1.087   1_455  S
C333        C334   1.360       .  D
C335        H340   1.086       .  S
C335        C336   1.374       .  D
C336        C348   1.481   1_556  S
C341        C342   1.531       .  S
C341        C347   1.540       .  S
C341        C345   1.538       .  S
C341        C402   1.507       .  S
C342        H349   1.088   1_554  S
C342        C343   1.362   1_554  D
C343        C344   1.541       .  S
C343        C602   1.478       .  S
C344        C348   1.544   1_556  S
C344        C346   1.546   1_556  S
C344        H350   1.111       .  S
C345        H351   1.087   1_455  S
C345        C346   1.360       .  D
C347        H352   1.086       .  S
C347        C348   1.374       .  D
In353       O355   2.213       .  S
In353       O356   2.281       .  S
In353       O364   2.235       .  S
In353       O358   2.236       .  S
In353       O360   2.238       .  S
In353       O361   2.240       .  S
In353       O362   2.188       .  S
In353       O365   2.227       .  S
C354        O360   1.266       .  A
C354        O362   1.261       .  A
C354        C367   1.447       .  S
O355        C363   1.261       .  A
O356        C363   1.265       .  A
C357        O364   1.262       .  A
C357        O358   1.261       .  A
C359        O361   1.266       .  A
C359        O365   1.259       .  A
C359        C437   1.459       .  S
C363        C457   1.507       .  S
In366       O368   2.239       .  S
In366       O369   2.254       .  S
In366       O377   2.227       .  S
In366       O371   2.233       .  S
In366       O373   2.243       .  S
In366       O374   2.280       .  S
In366       O375   2.191       .  S
In366       O378   2.226       .  S
C367        O373   1.264       .  A
C367        O375   1.259       .  A
O368        C376   1.258       .  A
O369        C376   1.267       .  A
C370        O377   1.263       .  A
C370        O371   1.264       .  A
C372        C471   1.478       .  S
C372        O374   1.264       .  A
C372        O378   1.258       .  A
C376        C389   1.467       .  S
In379       O381   2.239       .  S
In379       O382   2.254       .  S
In379       O390   2.228       .  S
In379       O384   2.233       .  S
In379       O386   2.243       .  S
In379       O387   2.280       .  S
In379       O388   2.191       .  S
In379       O391   2.227       .  S
C380        O386   1.264       .  A
C380        O388   1.259       .  A
C380        C393   1.447   1_655  S
O381        C389   1.258       .  A
O382        C389   1.267       .  A
C383        O390   1.263       .  A
C383        O384   1.264       .  A
C385        O387   1.264       .  A
C385        O391   1.258       .  A
In392       O394   2.213       .  S
In392       O395   2.281       .  S
In392       O403   2.235       .  S
In392       O397   2.236       .  S
In392       O399   2.238       .  S
In392       O400   2.240       .  S
In392       O401   2.188       .  S
In392       O404   2.227       .  S
C393        O399   1.266       .  A
C393        O401   1.261       .  A
O394        C402   1.261       .  A
O395        C402   1.265       .  A
C396        O403   1.262       .  A
C396        O397   1.261       .  A
C398        O400   1.266       .  A
C398        O404   1.259       .  A
C398        C424   1.458       .  S
In405       O407   2.239       .  S
In405       O408   2.254       .  S
In405       O416   2.227       .  S
In405       O410   2.233       .  S
In405       O412   2.243       .  S
In405       O413   2.281       .  S
In405       O414   2.191       .  S
In405       O417   2.227       .  S
C406        O412   1.264       .  A
C406        O414   1.259       .  A
C406        C419   1.447       .  S
O407        C415   1.258       .  A
O408        C415   1.267       .  A
C409        O416   1.263       .  A
C409        O410   1.264       .  A
C411        C495   1.478       .  S
C411        O413   1.264       .  A
C411        O417   1.258       .  A
C415        C454   1.467       .  S
In418       O420   2.212       .  S
In418       O421   2.281       .  S
In418       O429   2.235       .  S
In418       O423   2.237       .  S
In418       O425   2.238       .  S
In418       O426   2.240       .  S
In418       O427   2.188       .  S
In418       O430   2.227       .  S
C419        O425   1.266       .  A
C419        O427   1.261       .  A
O420        C428   1.261       .  A
O421        C428   1.265       .  A
C422        O429   1.262       .  A
C422        O423   1.261       .  A
C424        O426   1.266       .  A
C424        O430   1.259       .  A
C428        C481   1.507       .  S
In431       O433   2.212       .  S
In431       O434   2.281       .  S
In431       O442   2.236       .  S
In431       O436   2.237       .  S
In431       O438   2.238       .  S
In431       O439   2.240       .  S
In431       O440   2.188       .  S
In431       O443   2.227       .  S
C432        O438   1.266       .  A
C432        O440   1.261       .  A
C432        C445   1.447       .  S
O433        C441   1.261       .  A
O434        C441   1.265       .  A
C435        O442   1.262       .  A
C435        O436   1.261       .  A
C437        O439   1.266       .  A
C437        O443   1.259       .  A
In444       O446   2.239       .  S
In444       O447   2.254       .  S
In444       O455   2.228       .  S
In444       O449   2.233       .  S
In444       O451   2.243       .  S
In444       O452   2.281       .  S
In444       O453   2.191       .  S
In444       O456   2.227       .  S
C445        O451   1.264   1_655  A
C445        O453   1.259   1_655  A
O446        C454   1.258       .  A
O447        C454   1.267       .  A
C448        O455   1.263       .  A
C448        O449   1.264       .  A
C450        O452   1.264       .  A
C450        O456   1.258       .  A
C457        C458   1.531       .  S
C457        C463   1.540       .  S
C457        C461   1.538       .  S
C458        H465   1.088       .  S
C458        C459   1.362       .  D
C459        C460   1.541       .  S
C459        C576   1.478       .  S
C460        C464   1.544       .  S
C460        C462   1.546       .  S
C460        H466   1.111       .  S
C461        H467   1.087       .  S
C461        C462   1.360       .  D
C462        C474   1.483       .  S
C463        H468   1.086       .  S
C463        C464   1.374       .  D
C464        C500   1.481   1_655  S
C469        C470   1.531       .  S
C469        C475   1.540       .  S
C469        C473   1.538       .  S
C469        C567   1.507       .  S
C470        H477   1.088       .  S
C470        C471   1.362       .  D
C471        C472   1.541       .  S
C472        C476   1.544       .  S
C472        C474   1.546       .  S
C472        H478   1.111       .  S
C473        H479   1.087       .  S
C473        C474   1.360       .  D
C475        H480   1.086       .  S
C475        C476   1.374       .  D
C476        C488   1.481   1_655  S
C481        C482   1.531       .  S
C481        C487   1.540       .  S
C481        C485   1.538       .  S
C482        H489   1.088       .  S
C482        C483   1.362       .  D
C483        C484   1.542       .  S
C483        C550   1.478       .  S
C484        C488   1.544       .  S
C484        C486   1.546       .  S
C484        H490   1.111       .  S
C485        H491   1.087       .  S
C485        C486   1.360       .  D
C486        C498   1.483       .  S
C487        H492   1.086       .  S
C487        C488   1.374       .  D
C493        C494   1.531       .  S
C493        C499   1.540       .  S
C493        C497   1.538       .  S
C493        C541   1.507       .  S
C494        H501   1.088       .  S
C494        C495   1.362       .  D
C495        C496   1.542       .  S
C496        C500   1.544       .  S
C496        C498   1.546       .  S
C496        H502   1.111       .  S
C497        H503   1.087       .  S
C497        C498   1.360       .  D
C499        H504   1.086       .  S
C499        C500   1.374       .  D
In505       O507   2.239       .  S
In505       O508   2.254       .  S
In505       O516   2.228       .  S
In505       O510   2.233       .  S
In505       O512   2.243       .  S
In505       O513   2.281       .  S
In505       O514   2.191       .  S
In505       O517   2.227       .  S
C506        O512   1.264       .  A
C506        O514   1.259       .  A
C506        C519   1.447   1_655  S
O507        C515   1.258       .  A
O508        C515   1.267       .  A
C509        O516   1.263       .  A
C509        O510   1.264       .  A
C511        O513   1.264       .  A
C511        O517   1.258       .  A
C515        C580   1.467       .  S
In518       O520   2.212       .  S
In518       O521   2.281       .  S
In518       O529   2.235       .  S
In518       O523   2.237       .  S
In518       O525   2.238       .  S
In518       O526   2.240       .  S
In518       O527   2.188       .  S
In518       O530   2.227       .  S
C519        O525   1.266       .  A
C519        O527   1.261       .  A
O520        C528   1.261       .  A
O521        C528   1.265       .  A
C522        O529   1.262       .  A
C522        O523   1.261       .  A
C524        O526   1.266       .  A
C524        O530   1.259       .  A
C524        C537   1.458       .  S
In531       O533   2.212       .  S
In531       O534   2.281       .  S
In531       O542   2.235       .  S
In531       O536   2.236       .  S
In531       O538   2.238       .  S
In531       O539   2.240       .  S
In531       O540   2.188       .  S
In531       O543   2.227       .  S
C532        O538   1.266       .  A
C532        O540   1.261       .  A
C532        C545   1.447       .  S
O533        C541   1.261       .  A
O534        C541   1.265       .  A
C535        O542   1.262       .  A
C535        O536   1.261       .  A
C537        O539   1.266       .  A
C537        O543   1.259       .  A
In544       O546   2.239       .  S
In544       O547   2.254       .  S
In544       O555   2.228       .  S
In544       O549   2.233       .  S
In544       O551   2.243       .  S
In544       O552   2.281       .  S
In544       O553   2.190       .  S
In544       O556   2.227       .  S
C545        O551   1.264       .  A
C545        O553   1.259       .  A
O546        C554   1.258       .  A
O547        C554   1.267       .  A
C548        O555   1.263       .  A
C548        O549   1.264       .  A
C550        O552   1.264       .  A
C550        O556   1.258       .  A
C554        C606   1.467       .  S
In557       O559   2.212       .  S
In557       O560   2.281       .  S
In557       O568   2.236       .  S
In557       O562   2.236       .  S
In557       O564   2.238       .  S
In557       O565   2.240       .  S
In557       O566   2.188       .  S
In557       O569   2.227       .  S
C558        O564   1.266       .  A
C558        O566   1.261       .  A
C558        C571   1.447       .  S
O559        C567   1.261       .  A
O560        C567   1.265       .  A
C561        O568   1.262       .  A
C561        O562   1.261       .  A
C563        O565   1.266       .  A
C563        O569   1.259       .  A
C563        C589   1.459       .  S
In570       O572   2.239       .  S
In570       O573   2.254       .  S
In570       O581   2.227       .  S
In570       O575   2.233       .  S
In570       O577   2.243       .  S
In570       O578   2.280       .  S
In570       O579   2.191       .  S
In570       O582   2.227       .  S
C571        O577   1.264       .  A
C571        O579   1.259       .  A
O572        C580   1.258       .  A
O573        C580   1.267       .  A
C574        O581   1.263       .  A
C574        O575   1.264       .  A
C576        O578   1.264       .  A
C576        O582   1.258       .  A
In583       O585   2.213       .  S
In583       O586   2.281       .  S
In583       O594   2.235       .  S
In583       O588   2.237       .  S
In583       O590   2.238       .  S
In583       O591   2.240       .  S
In583       O592   2.188       .  S
In583       O595   2.227       .  S
C584        O590   1.266       .  A
C584        O592   1.261       .  A
C584        C597   1.447       .  S
O585        C593   1.261       .  A
O586        C593   1.265       .  A
C587        O594   1.262       .  A
C587        O588   1.261       .  A
C589        O591   1.266       .  A
C589        O595   1.259       .  A
In596       O598   2.239       .  S
In596       O599   2.254       .  S
In596       O607   2.227       .  S
In596       O601   2.232       .  S
In596       O603   2.242       .  S
In596       O604   2.281       .  S
In596       O605   2.191       .  S
In596       O608   2.227       .  S
C597        O603   1.264   1_655  A
C597        O605   1.259   1_655  A
O598        C606   1.258       .  A
O599        C606   1.267       .  A
C600        O607   1.263       .  A
C600        O601   1.264       .  A
C602        O604   1.264       .  A
C602        O608   1.258       .  A
