geometry optimzed in LAMMPS
_audit_creation_date              2020-11-30 
_audit_creation_method            'lammps2cif' 
_symmetry_space_group_name_H-M    'P1' 
_symmetry_Int_Tables_number       1 
_symmetry_cell_setting            triclinic 
loop_ 
_symmetry_equiv_pos_as_xyz 
  x,y,z 
_cell_length_a                    42.5724556 
_cell_length_b                    42.46352577825365 
_cell_length_c                    57.319902084074016 
_cell_angle_alpha                 91.83534856662929 
_cell_angle_beta                  88.25135886843513 
_cell_angle_gamma                 123.1836621220233 
loop_ 
_atom_site_label 
_atom_site_type_symbol 
_atom_site_fract_x 
_atom_site_fract_y 
_atom_site_fract_z 
_atom_site_charge 
C1          C  0.03685181  0.68264662  0.35275966     0.02900
C2          C  0.07309569  0.71552723  0.35109768    -0.13200
C3          C  0.08135839  0.74443679  0.33554787     0.00400
C4          C  0.05199458  0.73898569  0.32151147    -0.11700
C5          C  0.01654565  0.70509784  0.32157682     0.02900
C6          C  0.00901021  0.67748045  0.33764652    -0.11100
H7          H  0.09469859  0.71756908  0.36167402     0.08500
H8          H  0.05609934  0.76095878  0.31034139     0.06100
H9          H  0.98149245  0.65160842  0.33821331     0.05900
C10         C  0.16658695  0.83657250  0.31224864     0.02900
C11         C  0.19224700  0.84676745  0.33012825    -0.13200
C12         C  0.18304669  0.82403695  0.34964157     0.00400
C13         C  0.14678599  0.79113812  0.35149201    -0.11700
C14         C  0.12022457  0.77979150  0.33361442     0.02900
C15         C  0.13125121  0.80277447  0.31376413    -0.11100
H16         H  0.21914758  0.87334120  0.32917955     0.08500
H17         H  0.13967254  0.77470232  0.36700420     0.06100
H18         H  0.11295702  0.79470203  0.29904737     0.05900
C19         C  0.83671106  0.17121749  0.69636061     0.02900
C20         C  0.84809364  0.19422233  0.67682244    -0.13200
C21         C  0.82477507  0.18365327  0.65754527     0.00400
C22         C  0.78986223  0.14921124  0.65760195    -0.11700
C23         C  0.77695610  0.12543157  0.67715199     0.02900
C24         C  0.80094822  0.13749595  0.69665152    -0.11100
H25         H  0.87546709  0.22036423  0.67646622     0.08500
H26         H  0.77375298  0.14103385  0.64183565     0.06100
H27         H  0.79233791  0.12135960  0.71240028     0.05900
C28         C  0.67858250  0.04420562  0.65823610     0.02900
C29         C  0.67167504  0.01650067  0.67393478    -0.13200
C30         C  0.69670701  0.02399860  0.69184057     0.00400
C31         C  0.73092526  0.05936714  0.69267798    -0.11700
C32         C  0.73949822  0.08795721  0.67672236     0.02900
C33         C  0.71201359  0.07997025  0.66003408    -0.11100
H34         H  0.64672185  0.98852599  0.67184959     0.08500
H35         H  0.75058105  0.06417364  0.70589085     0.06100
H36         H  0.71580677  0.10135071  0.64843198     0.05900
O37         O  0.39414120  0.92798122  0.53128524    -0.74600
O38         O  0.43828909  0.88935794  0.48987625    -0.74600
O39         O  0.45585108  0.92453865  0.53262401    -0.74700
O40         O  0.37714467  0.89304457  0.48892524    -0.74700
O41         O  0.41148206  0.94820730  0.47123834    -0.74700
O42         O  0.48908500  0.98077074  0.51612487    -0.74700
O43         O  0.47365413  0.94580119  0.47367382    -0.74600
O44         O  0.42687978  0.98327893  0.51363244    -0.74700
Ni45       Ni  0.41523747  0.90678966  0.51132288     1.25400
Ni46       Ni  0.45152310  0.96651353  0.49306923     1.25400
C47         C  0.40266363  0.96175952  0.52904256     0.87600
C48         C  0.46304643  0.91124173  0.47485239     0.87500
C49         C  0.48528051  0.95803948  0.53183495     0.87500
C50         C  0.38142615  0.91521839  0.47271495     0.87700
O51         O  0.92557479  0.38908033  0.47256434    -0.74600
O52         O  0.89188288  0.43653169  0.51508094    -0.74600
O53         O  0.92472889  0.45228632  0.47208905    -0.74700
O54         O  0.89273510  0.37323077  0.51563072    -0.74700
O55         O  0.94914850  0.40543263  0.53185876    -0.74700
O56         O  0.98117199  0.48473414  0.48826874    -0.74700
O57         O  0.94822927  0.46867364  0.53141444    -0.74600
O58         O  0.98199547  0.42126325  0.48880121    -0.74700
Ni59       Ni  0.90675290  0.41163212  0.49327439     1.25400
Ni60       Ni  0.96716149  0.44620512  0.51065319     1.25400
C61         C  0.95933798  0.39737168  0.47358590     0.87600
C62         C  0.91442210  0.46029942  0.53037277     0.87500
C63         C  0.95826414  0.48154245  0.47289995     0.87500
C64         C  0.91552144  0.37629457  0.53102729     0.87700
C65         C  0.50312917  0.92090062  0.98291197     0.02900
C66         C  0.46974090  0.92036817  0.98248461    -0.13200
C67         C  0.46294133  0.94202276  0.99865996     0.00400
C68         C  0.49065595  0.96425470  0.01539607    -0.11700
C69         C  0.52313346  0.96365292  0.01677201     0.02900
C70         C  0.52886113  0.94169398  0.00067726    -0.11100
H71         H  0.44938472  0.90323676  0.96934358     0.08500
H72         H  0.48780444  0.98290036  0.02722864     0.06100
H73         H  0.55346308  0.94049288  0.00225179     0.05900
C74         C  0.38170180  0.95238684  0.01764224     0.02900
C75         C  0.36096908  0.94147172  0.99715959    -0.13200
C76         C  0.37264272  0.93059832  0.97715486     0.00400
C77         C  0.40604004  0.93140700  0.97754382    -0.11700
C78         C  0.42745041  0.94182815  0.99807290     0.02900
C79         C  0.41442316  0.95196368  0.01815068    -0.11100
H80         H  0.33538410  0.94122247  0.99683901     0.08500
H81         H  0.41521005  0.92449057  0.96154101     0.06100
H82         H  0.42887587  0.95877448  0.03454133     0.05900
C83         C  0.96959075  0.39620995  0.98429895     0.02900
C84         C  0.94744645  0.36742072  0.00007071    -0.13200
C85         C  0.92051537  0.36801958  0.01437693     0.00400
C86         C  0.91555880  0.39792411  0.01263191    -0.11700
C87         C  0.93853646  0.42825788  0.99765308     0.02900
C88         C  0.96566529  0.42692352  0.98354566    -0.11100
H89         H  0.95102756  0.34414719  0.00105023     0.08500
H90         H  0.89326191  0.39691296  0.02282751     0.06100
H91         H  0.98437886  0.44984941  0.97215757     0.05900
C92         C  0.91667805  0.50192944  0.01600981     0.02900
C93         C  0.92001871  0.47086286  0.01648562    -0.13200
C94         C  0.93465433  0.46132242  0.99704672     0.00400
C95         C  0.94591077  0.48390834  0.97707843    -0.11700
C96         C  0.94548355  0.51679761  0.97697667     0.02900
C97         C  0.93096885  0.52547161  0.99667201    -0.11100
H98         H  0.91091281  0.45423362  0.03206492     0.08500
H99         H  0.95471740  0.47581091  0.96141069     0.06100
H100        H  0.93128003  0.55113048  0.99733719     0.05900
C101        C  0.04558837  0.28097483  0.35274415     0.02900
C102        C  0.02519326  0.27024690  0.33210269    -0.13200
C103        C  0.03657803  0.25849498  0.31240728     0.00400
C104        C  0.06912661  0.25792251  0.31323927    -0.11700
C105        C  0.09013850  0.26799736  0.33390034     0.02900
C106        C  0.07757975  0.27922522  0.35369486    -0.11100
H107        H  0.00036776  0.27128340  0.33127457     0.08500
H108        H  0.07819471  0.25052598  0.29737671     0.06100
H109        H  0.09197701  0.28611680  0.37010804     0.05900
C110        C  0.16422171  0.24545924  0.31821053     0.02900
C111        C  0.13089643  0.24489149  0.31846352    -0.13200
C112        C  0.12511770  0.26731484  0.33456357     0.00400
C113        C  0.15337734  0.28944607  0.35105681    -0.11700
C114        C  0.18608743  0.28898788  0.35169858     0.02900
C115        C  0.19140631  0.26737419  0.33501525    -0.11100
H116        H  0.10937345  0.22619724  0.30625656     0.08500
H117        H  0.15081863  0.30795639  0.36318705     0.06100
H118        H  0.21691839  0.26752402  0.33516665     0.05900
O119        O  0.31287322  0.15014748  0.15399101    -0.74600
O120        O  0.27873384  0.06962543  0.19658978    -0.74600
O121        O  0.31233364  0.08625379  0.15409497    -0.74700
O122        O  0.27857241  0.13335204  0.19692275    -0.74700
O123        O  0.22227980  0.10156192  0.18053513    -0.74700
O124        O  0.25661615  0.05566400  0.13697841    -0.74700
O125        O  0.22285930  0.03789208  0.17965976    -0.74600
O126        O  0.25633722  0.11966097  0.13780412    -0.74700
Ni127      Ni  0.29757790  0.11103825  0.17600239     1.25400
Ni128      Ni  0.23751936  0.07762634  0.15813265     1.25400
C129        C  0.29036967  0.14803734  0.13876936     0.87600
C130        C  0.24543052  0.04021622  0.19496874     0.87500
C131        C  0.28997519  0.06295198  0.13855944     0.87500
C132        C  0.24468546  0.12485321  0.19606517     0.87700
C133        C  0.60745444  0.71276610  0.30623050     0.02900
C134        C  0.60864645  0.74651788  0.30735067    -0.13200
C135        C  0.59579941  0.75682467  0.32749455     0.00400
C136        C  0.58124028  0.73155132  0.34635418    -0.11700
C137        C  0.57810378  0.69685805  0.34487810     0.02900
C138        C  0.59173350  0.68806957  0.32491275    -0.11100
H139        H  0.61909504  0.76392296  0.29212019     0.08500
H140        H  0.57197891  0.73812104  0.36239017     0.06100
H141        H  0.59124386  0.66226772  0.32423700     0.05900
C142        C  0.57826690  0.83369290  0.34741010     0.02900
C143        C  0.59911779  0.86085582  0.33048089    -0.13200
C144        C  0.62042143  0.85601077  0.31350011     0.00400
C145        C  0.62002688  0.82270930  0.31299452    -0.11700
C146        C  0.59729811  0.79332472  0.32876552     0.02900
C147        C  0.57634615  0.79953496  0.34589683    -0.11100
H148        H  0.59864853  0.88609617  0.33039353     0.08500
H149        H  0.63827677  0.82066914  0.30044924     0.06100
H150        H  0.55872556  0.77836837  0.35843499     0.05900
O151        O  0.82595544  0.65194044  0.18192962    -0.74600
O152        O  0.74699739  0.61761071  0.13768391    -0.74600
O153        O  0.76266933  0.65273152  0.17996161    -0.74700
O154        O  0.81016366  0.61719249  0.13927414    -0.74700
O155        O  0.77801725  0.56122457  0.15616364    -0.74700
O156        O  0.73033108  0.59698770  0.19710510    -0.74700
O157        O  0.71482906  0.56187270  0.15485443    -0.74600
O158        O  0.79334392  0.59590297  0.19870270    -0.74700
Ni159      Ni  0.78766985  0.63687559  0.15912974     1.25400
Ni160      Ni  0.75303954  0.57705545  0.17733939     1.25400
C161        C  0.82253884  0.62943295  0.19770197     0.87600
C162        C  0.71782877  0.58399294  0.13902216     0.87500
C163        C  0.73826657  0.63062499  0.19506918     0.87500
C164        C  0.80164032  0.58331549  0.14067720     0.87700
O165        O  0.72333122  0.10449087  0.15588219    -0.74600
O166        O  0.80970602  0.15553253  0.19503781    -0.74600
O167        O  0.79077237  0.17051070  0.15409261    -0.74700
O168        O  0.74217112  0.08960120  0.19717348    -0.74700
O169        O  0.76719252  0.06143123  0.17840729    -0.74700
O170        O  0.81343764  0.14092271  0.13413213    -0.74700
O171        O  0.83425912  0.12771927  0.17525891    -0.74600
O172        O  0.74708981  0.07495686  0.13731407    -0.74700
Ni173      Ni  0.76561928  0.13102868  0.17626201     1.25400
Ni174      Ni  0.79139336  0.10024736  0.15563768     1.25400
C175        C  0.72131772  0.08172577  0.13982958     0.87600
C176        C  0.83625760  0.15002071  0.19159775     0.87500
C177        C  0.80919620  0.16846111  0.13671606     0.87500
C178        C  0.74698557  0.06237455  0.19511325     0.87700
C179        C  0.35959360  0.36626912  0.98054186     0.02900
C180        C  0.35194393  0.33857928  0.99654677    -0.13200
C181        C  0.37709865  0.34572392  0.01438499     0.00400
C182        C  0.41224401  0.38032742  0.01448014    -0.11700
C183        C  0.42146862  0.40864234  0.99812968     0.02900
C184        C  0.39378023  0.40129983  0.98186756    -0.11100
H185        H  0.32611612  0.31117695  0.99496218     0.08500
H186        H  0.43189758  0.38501721  0.02763227     0.06100
H187        H  0.39779014  0.42287807  0.97038271     0.05900
C188        C  0.50478241  0.50596965  0.97937398     0.02900
C189        C  0.52815217  0.51672502  0.99864918    -0.13200
C190        C  0.51807861  0.49275130  0.01752554     0.00400
C191        C  0.48342471  0.45797463  0.01749152    -0.11700
C192        C  0.45913061  0.44588438  0.99821626     0.02900
C193        C  0.47123776  0.47016807  0.97891727    -0.11100
H194        H  0.55427383  0.54409534  0.99912212     0.08500
H195        H  0.47572096  0.44140264  0.03299272     0.06100
H196        H  0.45517699  0.46168026  0.96313541     0.05900
C197        C  0.82924557  0.57718598  0.65163656     0.02900
C198        C  0.79587159  0.57653768  0.65187486    -0.13200
C199        C  0.78871622  0.59636922  0.66931681     0.00400
C200        C  0.81559434  0.61561891  0.68701298    -0.11700
C201        C  0.84844827  0.61536629  0.68749435     0.02900
C202        C  0.85534891  0.59697628  0.66931033    -0.11100
H203        H  0.77547336  0.55971896  0.63864612     0.08500
H204        H  0.81133575  0.63100690  0.70063655     0.06100
H205        H  0.88155518  0.59842457  0.66864184     0.05900
C206        C  0.70981997  0.61049735  0.68866840     0.02900
C207        C  0.74110234  0.60762672  0.68927041    -0.13200
C208        C  0.75379606  0.59737589  0.66904339     0.00400
C209        C  0.73310376  0.58893397  0.64835884    -0.11700
C210        C  0.70082446  0.59014014  0.64789797     0.02900
C211        C  0.68970181  0.60133702  0.66801171    -0.11100
H212        H  0.75465731  0.61290812  0.70584841     0.08500
H213        H  0.74209899  0.58219126  0.63222334     0.06100
H214        H  0.66512530  0.60285945  0.66761826     0.05900
O215        O  0.64311206  0.81597381  0.81838560    -0.74600
O216        O  0.61108694  0.74000732  0.86422772    -0.74600
O217        O  0.64416911  0.75306898  0.82146902    -0.74700
O218        O  0.61019164  0.80320957  0.86124268    -0.74700
O219        O  0.55271240  0.76719544  0.84657413    -0.74700
O220        O  0.58858757  0.72132754  0.80417110    -0.74700
O221        O  0.55557213  0.70519079  0.84702754    -0.74600
O222        O  0.58555522  0.78374616  0.80354793    -0.74700
Ni223      Ni  0.62914428  0.77928034  0.84191353     1.25400
Ni224      Ni  0.56860703  0.74317708  0.82469469     1.25400
C225        C  0.61929541  0.81267176  0.80376155     0.87600
C226        C  0.57823725  0.70976235  0.86296078     0.87500
C227        C  0.62206345  0.72903106  0.80614267     0.87500
C228        C  0.57577847  0.79300586  0.86077596     0.87700
C229        C  0.27939386  0.04889693  0.64276112     0.02900
C230        C  0.27752703  0.08090986  0.64279299    -0.13200
C231        C  0.26546085  0.09191018  0.66292649     0.00400
C232        C  0.25489912  0.06945025  0.68297549    -0.11700
C233        C  0.25560628  0.03670902  0.68288807     0.02900
C234        C  0.26806606  0.02689887  0.66274434    -0.11100
H235        H  0.28488920  0.09652447  0.62683357     0.08500
H236        H  0.24685134  0.07757276  0.69898348     0.06100
H237        H  0.26893372  0.00185623  0.66255519     0.05900
C238        C  0.24014796  0.16404198  0.67935057     0.02900
C239        C  0.26340890  0.19274197  0.66366938    -0.13200
C240        C  0.28698342  0.18919975  0.64774997     0.00400
C241        C  0.28783397  0.15661291  0.64788829    -0.11700
C242        C  0.26435013  0.12678550  0.66310833     0.02900
C243        C  0.24021412  0.13088178  0.67861915    -0.11100
H244        H  0.26339823  0.21824520  0.66392458     0.08500
H245        H  0.30772376  0.15531923  0.63640342     0.06100
H246        H  0.22092265  0.10823600  0.69000087     0.05900
O247        O  0.16249855  0.31933906  0.84592347    -0.74600
O248        O  0.07759295  0.28762895  0.80683801    -0.74600
O249        O  0.10159094  0.32398256  0.84877022    -0.74700
O250        O  0.13889152  0.28360961  0.80361699    -0.74700
O251        O  0.10647305  0.22799417  0.82088741    -0.74700
O252        O  0.07003315  0.26912714  0.86696567    -0.74700
O253        O  0.04548756  0.23272637  0.82494101    -0.74600
O254        O  0.13028969  0.26361494  0.86306919    -0.74700
Ni255      Ni  0.12127180  0.30557347  0.82564750     1.25400
Ni256      Ni  0.08693445  0.24640167  0.84458324     1.25400
C257        C  0.16012132  0.29660265  0.86118299     0.87600
C258        C  0.04752114  0.25483120  0.80941278     0.87500
C259        C  0.08016497  0.30359127  0.86551428     0.87500
C260        C  0.12864441  0.24913516  0.80452356     0.87700
O261        O  0.09803088  0.72595335  0.84453471    -0.74600
O262        O  0.14494264  0.80761333  0.80185992    -0.74600
O263        O  0.16497385  0.79230150  0.84236469    -0.74700
O264        O  0.07756432  0.74068297  0.80430484    -0.74700
O265        O  0.05449653  0.77089153  0.82299691    -0.74700
O266        O  0.13961511  0.81851851  0.86306344    -0.74700
O267        O  0.12249683  0.83668376  0.82249384    -0.74600
O268        O  0.07129328  0.75252225  0.86335059    -0.74700
Ni269      Ni  0.12227717  0.76571367  0.82251408     1.25400
Ni270      Ni  0.09616998  0.79570527  0.84372731     1.25400
C271        C  0.07629549  0.72548137  0.86062961     0.87600
C272        C  0.14180071  0.83579350  0.80518213     0.87500
C273        C  0.16640930  0.81343250  0.85931955     0.87500
C274        C  0.05175661  0.74731345  0.80738352     0.87700
O275        O  0.47538861  0.48802125  0.52852729    -0.74600
O276        O  0.38936202  0.43506987  0.48909208    -0.74600
O277        O  0.40888447  0.42119009  0.53044325    -0.74700
O278        O  0.45596783  0.50226284  0.48740720    -0.74700
O279        O  0.48114141  0.47469452  0.46805790    -0.74700
O280        O  0.43481436  0.39394733  0.51164279    -0.74700
O281        O  0.41505495  0.40753998  0.47036232    -0.74600
O282        O  0.50116089  0.46103362  0.50920150    -0.74700
Ni283      Ni  0.43147841  0.46259703  0.50954532     1.25400
Ni284      Ni  0.45894548  0.43333550  0.48914042     1.25400
C285        C  0.50234411  0.48301244  0.52547939     0.87600
C286        C  0.38822526  0.41275973  0.47301584     0.87500
C287        C  0.41445194  0.39446530  0.52841591     0.87500
C288        C  0.47594760  0.50167208  0.47044848     0.87700
C289        C  0.34750231  0.28606106  0.62133362    -0.11000
C290        C  0.34846593  0.27721483  0.59758053     0.06100
C291        C  0.33122923  0.23919034  0.59075095    -0.09800
C292        C  0.31234884  0.21067134  0.60716405    -0.11400
C293        C  0.31021106  0.21952557  0.63075391    -0.01200
C294        C  0.32859370  0.25757893  0.63770986    -0.10300
C295        C  0.36596648  0.30742100  0.57992139     0.06100
H296        H  0.33110915  0.23137684  0.57257736     0.08100
H297        H  0.29815847  0.18160202  0.60123939     0.11500
H298        H  0.32808481  0.26532668  0.65583273     0.11800
H299        H  0.36120331  0.31508045  0.62726650     0.08100
C300        C  0.36130425  0.33772908  0.58180195    -0.11000
C301        C  0.37687132  0.36575831  0.56503054    -0.10300
C302        C  0.39752163  0.36423878  0.54592031    -0.01200
C303        C  0.40232180  0.33401772  0.54402627    -0.11400
C304        C  0.38667331  0.30589583  0.56082607    -0.09800
H305        H  0.34501188  0.33947507  0.59605727     0.08100
H306        H  0.37264966  0.38864309  0.56706236     0.11800
H307        H  0.41823929  0.33210881  0.52958709     0.11500
H308        H  0.39111562  0.28314591  0.55899341     0.08100
C309        C  0.18371037  0.19978026  0.70850730    -0.11000
C310        C  0.18296005  0.19075449  0.73198675     0.06100
C311        C  0.19785912  0.16949051  0.73760966    -0.09800
C312        C  0.21486887  0.15925374  0.72034644    -0.11400
C313        C  0.21729366  0.16995597  0.69705270    -0.01200
C314        C  0.20050971  0.18941355  0.69126924    -0.10300
C315        C  0.16847668  0.20517318  0.75059430     0.06100
H316        H  0.19792619  0.16224915  0.75553177     0.08100
H317        H  0.22774975  0.14455052  0.72546808     0.11500
H318        H  0.20098916  0.19730020  0.67342662     0.11800
H319        H  0.17167661  0.21533475  0.70348003     0.08100
C320        C  0.17694363  0.24210443  0.74970907    -0.11000
C321        C  0.16416937  0.25624154  0.76725744    -0.10300
C322        C  0.14245962  0.23383477  0.78618107    -0.01200
C323        C  0.13391381  0.19686569  0.78711352    -0.11400
C324        C  0.14689752  0.18274609  0.76955504    -0.09800
H325        H  0.19403011  0.26038009  0.73559794     0.08100
H326        H  0.17134215  0.28485182  0.76594000     0.11800
H327        H  0.11720220  0.17883686  0.80140556     0.11500
H328        H  0.13967990  0.15410135  0.77067587     0.08100
C329        C  0.19416152  0.97548892  0.73296025    -0.11000
C330        C  0.21262953  0.95795314  0.73927987     0.06100
C331        C  0.24686862  0.96875443  0.72807553    -0.09800
C332        C  0.26152769  0.99533840  0.71039283    -0.11400
C333        C  0.24232772  0.01180948  0.70347064    -0.01200
C334        C  0.20887013  0.00214259  0.71527411    -0.10300
C335        C  0.19543060  0.92731830  0.75667626     0.06100
H336        H  0.26221128  0.95639178  0.73285198     0.08100
H337        H  0.28772249  0.00269703  0.70190986     0.11500
H338        H  0.19322747  0.01401904  0.71015770     0.11800
H339        H  0.16754448  0.96753498  0.74104878     0.08100
C340        C  0.17663659  0.92931900  0.77671212    -0.11000
C341        C  0.15939786  0.89976585  0.79254936    -0.10300
C342        C  0.16057146  0.86753463  0.78871281    -0.01200
C343        C  0.17961031  0.86570157  0.76878153    -0.11400
C344        C  0.19677803  0.89517826  0.75296931    -0.09800
H345        H  0.17542506  0.95384447  0.78021431     0.08100
H346        H  0.14510040  0.90216305  0.80778046     0.11800
H347        H  0.18092985  0.84124874  0.76522065     0.11500
H348        H  0.21043977  0.89240015  0.73752849     0.08100
C349        C  0.63841088  0.58679369  0.60096760    -0.11000
C350        C  0.62573339  0.55177197  0.59005842     0.06100
C351        C  0.64081709  0.53121329  0.59690349    -0.09800
C352        C  0.66664724  0.54458090  0.61499746    -0.11400
C353        C  0.67771655  0.57862799  0.62667129    -0.01200
C354        C  0.66401194  0.60000593  0.61912905    -0.10300
C355        C  0.59520816  0.53574124  0.57271079     0.06100
H356        H  0.63138523  0.50397846  0.58901800     0.08100
H357        H  0.67657532  0.52743090  0.62062495     0.11500
H358        H  0.67258188  0.62664508  0.62761664     0.11800
H359        H  0.62800032  0.60370664  0.59573564     0.08100
C360        C  0.56473611  0.53977440  0.57621155    -0.11000
C361        C  0.53498358  0.52327731  0.56064313    -0.10300
C362        C  0.53488022  0.50218550  0.54123646    -0.01200
C363        C  0.56553908  0.49848472  0.53754006    -0.11400
C364        C  0.59539414  0.51510574  0.55310060    -0.09800
H365        H  0.56334763  0.55486687  0.59137809     0.08100
H366        H  0.51170264  0.52645743  0.56408880     0.11800
H367        H  0.56635640  0.48247159  0.52271239     0.11500
H368        H  0.61862063  0.51180160  0.54978622     0.08100
C369        C  0.71256389  0.67372478  0.73787561    -0.11000
C370        C  0.67433182  0.65530935  0.74428106     0.06100
C371        C  0.64869947  0.62011919  0.73382885    -0.09800
C372        C  0.66052594  0.60487068  0.71643967    -0.11400
C373        C  0.69835451  0.62411960  0.70930458    -0.01200
C374        C  0.72446445  0.65818150  0.72062681    -0.10300
C375        C  0.66076638  0.67356049  0.76066037     0.06100
H376        H  0.61925829  0.60461376  0.73877048     0.08100
H377        H  0.63993955  0.57830080  0.70818613     0.11500
H378        H  0.75376318  0.67368808  0.71530126     0.11800
H379        H  0.73307508  0.70097431  0.74539067     0.08100
C380        C  0.68225249  0.69563765  0.77982768    -0.11000
C381        C  0.66973527  0.71365655  0.79458783    -0.10300
C382        C  0.63536372  0.70988534  0.79059912    -0.01200
C383        C  0.61377849  0.68759749  0.77158890    -0.11400
C384        C  0.62638738  0.66984489  0.75676430    -0.09800
H385        H  0.70862591  0.69879380  0.78353685     0.08100
H386        H  0.68693918  0.73042484  0.80919575     0.11800
H387        H  0.58728777  0.68424404  0.76794298     0.11500
H388        H  0.60944409  0.65380087  0.74190990     0.08100
C389        C  0.92216587  0.63656383  0.73214809    -0.11000
C390        C  0.92845902  0.66944056  0.74339041     0.06100
C391        C  0.90732092  0.68385142  0.73646951    -0.09800
C392        C  0.88161438  0.66662962  0.71834692    -0.11400
C393        C  0.87554897  0.63388861  0.70702204    -0.01200
C394        C  0.89575837  0.61878546  0.71451681    -0.10300
C395        C  0.95802758  0.68929574  0.76146596     0.06100
H396        H  0.91068005  0.70863790  0.74493481     0.08100
H397        H  0.86709851  0.67954682  0.71300236     0.11500
H398        H  0.89131818  0.59310784  0.70674375     0.11800
H399        H  0.93816751  0.62477318  0.73654286     0.08100
C400        C  0.96743424  0.66915695  0.77560433    -0.11000
C401        C  0.99776182  0.68809820  0.79072516    -0.10300
C402        C  0.01847175  0.72742085  0.79264032    -0.01200
C403        C  0.00810048  0.74761879  0.77966989    -0.11400
C404        C  0.97853272  0.72882710  0.76396876    -0.09800
H405        H  0.95169909  0.63872917  0.77485533     0.08100
H406        H  0.00511057  0.67206887  0.80094175     0.11800
H407        H  0.02396011  0.77806550  0.78092635     0.11500
H408        H  0.97278467  0.74553568  0.75322558     0.08100
C409        C  0.57810008  0.65652045  0.91478424    -0.11000
C410        C  0.54514339  0.62078477  0.91128721     0.06100
C411        C  0.52264012  0.61495569  0.89210418    -0.09800
C412        C  0.53312020  0.64401403  0.87661646    -0.11400
C413        C  0.56643359  0.67950450  0.87989433    -0.01200
C414        C  0.58868512  0.68551209  0.89923067    -0.10300
C415        C  0.53442381  0.58978634  0.92759316     0.06100
H416        H  0.49728974  0.58769104  0.88878072     0.08100
H417        H  0.51540411  0.63845084  0.86184222     0.11500
H418        H  0.61432907  0.71263240  0.90235778     0.11800
H419        H  0.59564682  0.66218034  0.92966461     0.08100
C420        C  0.56197239  0.58538564  0.93684282    -0.11000
C421        C  0.55223226  0.55735596  0.95297905    -0.10300
C422        C  0.51469875  0.53307781  0.96033037    -0.01200
C423        C  0.48698183  0.53672015  0.95052959    -0.11400
C424        C  0.49672554  0.56473118  0.93434109    -0.09800
H425        H  0.59114498  0.60363587  0.93158669     0.08100
H426        H  0.57418401  0.55485095  0.95982210     0.11800
H427        H  0.45789153  0.51885428  0.95605200     0.11500
H428        H  0.47485785  0.56756664  0.92772095     0.08100
C429        C  0.31582172  0.36293973  0.92273301    -0.11000
C430        C  0.27732501  0.34132474  0.92841335     0.06100
C431        C  0.26622848  0.32923396  0.95148115    -0.09800
C432        C  0.29289641  0.33787259  0.96839034    -0.11400
C433        C  0.33140623  0.35862149  0.96264925    -0.01200
C434        C  0.34258795  0.37138148  0.93965124    -0.10300
C435        C  0.24851856  0.33014234  0.91033816     0.06100
H436        H  0.23678424  0.31308762  0.95646545     0.08100
H437        H  0.28331599  0.32834440  0.98602863     0.11500
H438        H  0.37199107  0.38711034  0.93458728     0.11800
H439        H  0.32515103  0.37237153  0.90505118     0.08100
C440        C  0.25150149  0.35625418  0.89444043    -0.11000
C441        C  0.22319960  0.34545936  0.87812975    -0.10300
C442        C  0.19153862  0.30827290  0.87732419    -0.01200
C443        C  0.18920883  0.28212624  0.89291064    -0.11400
C444        C  0.21725391  0.29292151  0.90918838    -0.09800
H445        H  0.27524883  0.38519523  0.89501546     0.08100
H446        H  0.22580216  0.36632811  0.86644315     0.11800
H447        H  0.16541085  0.25320495  0.89273485     0.11500
H448        H  0.21449192  0.27203554  0.92093603     0.08100
C449        C  0.58056000  0.49249968  0.06312113    -0.11000
C450        C  0.59870287  0.52952322  0.07216008     0.06100
C451        C  0.58842233  0.55348457  0.06404152    -0.09800
C452        C  0.56148891  0.54114960  0.04677759    -0.11400
C453        C  0.54410330  0.50453005  0.03730046    -0.01200
C454        C  0.55345156  0.48009967  0.04587126    -0.10300
C455        C  0.62897239  0.54356018  0.08950742     0.06100
H456        H  0.60132431  0.58188040  0.07100262     0.08100
H457        H  0.55438390  0.56035719  0.04068883     0.11500
H458        H  0.54071611  0.45185994  0.03865560     0.11800
H459        H  0.58815529  0.47350025  0.06885984     0.08100
C460        C  0.62580228  0.52067588  0.10777713    -0.11000
C461        C  0.65456875  0.53390630  0.12390682    -0.10300
C462        C  0.68718423  0.57030065  0.12209950    -0.01200
C463        C  0.69027744  0.59323296  0.10388562    -0.11400
C464        C  0.66151014  0.57999569  0.08776417    -0.09800
H465        H  0.60089904  0.49265820  0.10973782     0.08100
H466        H  0.65122012  0.51555939  0.13780015     0.11800
H467        H  0.71506365  0.62133572  0.10195758     0.11500
H468        H  0.66502173  0.59810254  0.07367250     0.08100
C469        C  0.68021896  0.95268154  0.28701533    -0.11000
C470        C  0.67873604  0.94381251  0.26310107     0.06100
C471        C  0.65996194  0.90578708  0.25597438    -0.09800
C472        C  0.64210306  0.87719646  0.27239857    -0.11400
C473        C  0.64268193  0.88608872  0.29625336    -0.01200
C474        C  0.66251447  0.92415955  0.30341042    -0.10300
C475        C  0.69618741  0.97413584  0.24564800     0.06100
H476        H  0.65810815  0.89814596  0.23763432     0.08100
H477        H  0.62668111  0.84812904  0.26637022     0.11500
H478        H  0.66396999  0.93186898  0.32172321     0.11800
H479        H  0.69508155  0.98173929  0.29304559     0.08100
C480        C  0.69196930  0.00470051  0.24781956    -0.11000
C481        C  0.70825144  0.03320632  0.23133973    -0.10300
C482        C  0.72923862  0.03185361  0.21237050    -0.01200
C483        C  0.73346498  0.00128400  0.21022821    -0.11400
C484        C  0.71702537  0.97269148  0.22665952    -0.09800
H485        H  0.67566722  0.00631854  0.26212319     0.08100
H486        H  0.70442456  0.05634095  0.23350380     0.11800
H487        H  0.74956319  0.99946119  0.19587761     0.11500
H488        H  0.72104166  0.94966104  0.22468984     0.08100
C489        C  0.55519098  0.65482350  0.40542001    -0.11000
C490        C  0.53235476  0.61609421  0.40010533     0.06100
C491        C  0.52280587  0.60449417  0.37674302    -0.09800
C492        C  0.53686768  0.63083887  0.35900826    -0.11400
C493        C  0.56091758  0.66947613  0.36415844    -0.01200
C494        C  0.56937778  0.68127071  0.38760888    -0.10300
C495        C  0.51928441  0.58765139  0.41863693     0.06100
H496        H  0.50450856  0.57493344  0.37215046     0.08100
H497        H  0.52911575  0.62093422  0.34116293     0.11500
H498        H  0.58802771  0.71081384  0.39211770     0.11800
H499        H  0.56315789  0.66459936  0.42325277     0.08100
C500        C  0.51934468  0.55486224  0.41451556    -0.11000
C501        C  0.50615551  0.52742843  0.43156015    -0.10300
C502        C  0.49235571  0.53200998  0.45309027    -0.01200
C503        C  0.49290462  0.56510285  0.45741908    -0.11400
C504        C  0.50639617  0.59272731  0.44040315    -0.09800
H505        H  0.52971758  0.55044003  0.39807165     0.08100
H506        H  0.50609606  0.50227000  0.42767870     0.11800
H507        H  0.48255316  0.56949501  0.47388248     0.11500
H508        H  0.50586695  0.61761128  0.44405623     0.08100
C509        C  0.70501315  0.69155437  0.22043128    -0.11000
C510        C  0.67987950  0.66865217  0.23811496     0.06100
C511        C  0.67453692  0.63338024  0.24164927    -0.09800
C512        C  0.69361012  0.62117795  0.22779467    -0.11400
C513        C  0.71865251  0.64398356  0.21008172    -0.01200
C514        C  0.72417205  0.67935553  0.20656777    -0.10300
C515        C  0.65980470  0.68151583  0.25326469     0.06100
H516        H  0.65596352  0.61533870  0.25541727     0.08100
H517        H  0.68879232  0.59386886  0.23103367     0.11500
H518        H  0.74310872  0.69755471  0.19297079     0.11800
H519        H  0.70953426  0.71871962  0.21712761     0.08100
C520        C  0.67830347  0.71889274  0.26175553    -0.11000
C521        C  0.66051412  0.72972194  0.27801187    -0.10300
C522        C  0.62395802  0.70336753  0.28613608    -0.01200
C523        C  0.60479082  0.66661220  0.27668745    -0.11400
C524        C  0.62245226  0.65584419  0.26041691    -0.09800
H525        H  0.70714476  0.73931349  0.25670817     0.08100
H526        H  0.67604062  0.75814318  0.28516507     0.11800
H527        H  0.57639085  0.64587388  0.28240065     0.11500
H528        H  0.60707879  0.62712009  0.25377614     0.08100
C529        C  0.38082437  0.28825407  0.06320243    -0.11000
C530        C  0.34254739  0.26385003  0.06927923     0.06100
C531        C  0.31619947  0.26688330  0.05703304    -0.09800
C532        C  0.32758751  0.29365135  0.03976077    -0.11400
C533        C  0.36567887  0.31745288  0.03323795    -0.01200
C534        C  0.39214886  0.31421180  0.04524244    -0.10300
C535        C  0.32989114  0.23509099  0.08795361     0.06100
H536        H  0.28641610  0.24835475  0.06048965     0.08100
H537        H  0.30614277  0.29567285  0.03168172     0.11500
H538        H  0.42170856  0.33141912  0.04075928     0.11800
H539        H  0.40233685  0.28766418  0.07233902     0.08100
C540        C  0.35120540  0.22002756  0.09327298    -0.11000
C541        C  0.33876473  0.19250628  0.11026924    -0.10300
C542        C  0.30417292  0.17841679  0.12179980    -0.01200
C543        C  0.28271444  0.19306991  0.11667355    -0.11400
C544        C  0.29574693  0.22159602  0.10033854    -0.09800
H545        H  0.37712903  0.22867328  0.08399677     0.08100
H546        H  0.35561268  0.18127775  0.11386760     0.11800
H547        H  0.25612479  0.18286831  0.12561364     0.11500
H548        H  0.27889486  0.23303950  0.09761431     0.08100
C549        C  0.23099586  0.32687927  0.41095421    -0.11000
C550        C  0.26932659  0.34456789  0.40521885     0.06100
C551        C  0.28006322  0.34631914  0.38163256    -0.09800
C552        C  0.25312229  0.32955133  0.36423600    -0.11400
C553        C  0.21469605  0.31044329  0.36997985    -0.01200
C554        C  0.20392330  0.30992248  0.39348970    -0.10300
C555        C  0.29824059  0.36029359  0.42361373     0.06100
H556        H  0.30943921  0.36053670  0.37662704     0.08100
H557        H  0.26236621  0.33116823  0.34625474     0.11500
H558        H  0.17450281  0.29515481  0.39847255     0.11800
H559        H  0.22191055  0.32499743  0.42899053     0.08100
C560        C  0.29745378  0.38200899  0.44237723    -0.11000
C561        C  0.32624624  0.39853620  0.45878256    -0.10300
C562        C  0.35618306  0.39337921  0.45681595    -0.01200
C563        C  0.35615179  0.37059244  0.43847172    -0.11400
C564        C  0.32759098  0.35430939  0.42208896    -0.09800
H565        H  0.27519598  0.38713618  0.44395877     0.08100
H566        H  0.32541018  0.41587675  0.47273344     0.11800
H567        H  0.37860092  0.36579418  0.43648365     0.11500
H568        H  0.32855708  0.33709563  0.40809608     0.08100
C569        C  0.17252589  0.20557027  0.25957771    -0.11000
C570        C  0.19152379  0.18846263  0.26567102     0.06100
C571        C  0.19887027  0.18791034  0.28934176    -0.09800
C572        C  0.18885033  0.20524448  0.30639729    -0.11400
C573        C  0.17126451  0.22371995  0.30026499    -0.01200
C574        C  0.16254854  0.22305762  0.27669406    -0.10300
C575        C  0.20499757  0.17246058  0.24749046     0.06100
H576        H  0.21263620  0.17419268  0.29469510     0.08100
H577        H  0.19518745  0.20445497  0.32443468     0.11500
H578        H  0.14928681  0.23729102  0.27136178     0.11800
H579        H  0.16663025  0.20665873  0.24148959     0.08100
C580        C  0.18259937  0.15132576  0.22839015    -0.11000
C581        C  0.19546311  0.13598496  0.21161596    -0.10300
C582        C  0.23116984  0.14174653  0.21345407    -0.01200
C583        C  0.25366417  0.16325877  0.23240774    -0.11400
C584        C  0.24073651  0.17834453  0.24920563    -0.09800
H585        H  0.15485032  0.14608375  0.22663982     0.08100
H586        H  0.17739080  0.11952353  0.19724777     0.11800
H587        H  0.28127818  0.16826775  0.23439674     0.11500
H588        H  0.25895211  0.19499650  0.26347584     0.08100
C589        C  0.97450842  0.19717026  0.26284763    -0.11000
C590        C  0.96167550  0.21901301  0.25460025     0.06100
C591        C  0.97677230  0.25545260  0.26398395    -0.09800
C592        C  0.00237290  0.26888621  0.28214007    -0.11400
C593        C  0.01372702  0.24634015  0.29111361    -0.01200
C594        C  0.00043923  0.21080137  0.28090315    -0.10300
C595        C  0.93077189  0.20294649  0.23754081     0.06100
H596        H  0.96810831  0.27327962  0.25764164     0.08100
H597        H  0.01268387  0.29659618  0.28958689     0.11500
H598        H  0.00867034  0.19286247  0.28768798     0.11800
H599        H  0.96318640  0.16887191  0.25613333     0.08100
C600        C  0.92881700  0.17961180  0.21893005    -0.11000
C601        C  0.89844005  0.16290375  0.20376803    -0.10300
C602        C  0.86934527  0.16913335  0.20691622    -0.01200
C603        C  0.87162845  0.19293754  0.22530212    -0.11400
C604        C  0.90194931  0.20960575  0.24043642    -0.09800
H605        H  0.95075299  0.17423183  0.21611139     0.08100
H606        H  0.89757098  0.14477098  0.18972830     0.11800
H607        H  0.84965410  0.19822909  0.22827023     0.11500
H608        H  0.90224914  0.22689430  0.25484364     0.08100
C609        C  0.99772454  0.64333328  0.89349567    -0.11000
C610        C  0.01680818  0.63013164  0.90527294     0.06100
C611        C  0.05590393  0.64855712  0.90169806    -0.09800
C612        C  0.07524378  0.67928550  0.88687432    -0.11400
C613        C  0.05611872  0.69291734  0.87593872    -0.01200
C614        C  0.01730242  0.67478601  0.87931374    -0.10300
C615        C  0.99638253  0.59855768  0.92199438     0.06100
H616        H  0.07185902  0.63993166  0.91074632     0.08100
H617        H  0.10529779  0.69306714  0.88443569     0.11500
H618        H  0.00202672  0.68458221  0.87060808     0.11800
H619        H  0.96759267  0.62941664  0.89514816     0.08100
C620        C  0.96529492  0.59330378  0.93491878    -0.11000
C621        C  0.94759582  0.56548622  0.95171912    -0.10300
C622        C  0.96124537  0.54290208  0.95681256    -0.01200
C623        C  0.99158202  0.54728285  0.94335657    -0.11400
C624        C  0.00857029  0.57437955  0.92598806    -0.09800
H625        H  0.95511193  0.61140916  0.93267690     0.08100
H626        H  0.92353308  0.56230361  0.96099434     0.11800
H627        H  0.00323296  0.53075821  0.94669784     0.11500
H628        H  0.03172636  0.57673580  0.91600153     0.08100
C629        C  0.88645359  0.51588060  0.07671361    -0.11000
C630        C  0.86393562  0.52937163  0.07123879     0.06100
C631        C  0.85724132  0.53155730  0.04771202    -0.09800
C632        C  0.87373410  0.52182247  0.02999150    -0.11400
C633        C  0.89762451  0.50988242  0.03530566    -0.01200
C634        C  0.90326908  0.50632174  0.05888565    -0.13900
C635        C  0.84896189  0.54318099  0.08972627     0.06100
H636        H  0.83939179  0.54114951  0.04300836     0.08100
H637        H  0.86794512  0.52386770  0.01203434     0.11500
H638        H  0.92160165  0.49732120  0.06356040     0.11800
H639        H  0.89213857  0.51407022  0.09473053     0.08100
C640        C  0.83072024  0.52218017  0.10979942    -0.11000
C641        C  0.81546470  0.53516187  0.12656793    -0.10300
C642        C  0.81876530  0.56965928  0.12369077    -0.01200
C643        C  0.83780727  0.59090386  0.10384392    -0.11400
C644        C  0.85253848  0.57775780  0.08704515    -0.09800
H645        H  0.82752751  0.49536925  0.11223396     0.08100
H646        H  0.80099093  0.51818682  0.14168792     0.11800
H647        H  0.84083415  0.61754944  0.10103596     0.11500
H648        H  0.86689381  0.59474824  0.07190242     0.08100
C649        C  0.01192412  0.38717087  0.92754538    -0.11000
C650        C  0.03057364  0.37035411  0.93492737     0.06100
C651        C  0.03335974  0.36708270  0.95897698    -0.09800
C652        C  0.01573797  0.37800732  0.97519502    -0.11400
C653        C  0.99481003  0.39230188  0.96771285    -0.01200
C654        C  0.99423606  0.39805040  0.94378151    -0.10300
C655        C  0.04468971  0.35396351  0.91757817     0.06100
H656        H  0.04831939  0.35509916  0.96522365     0.08100
H657        H  0.01727585  0.37395541  0.99358029     0.11500
H658        H  0.97810310  0.40872338  0.93749305     0.11800
H659        H  0.00913737  0.38994183  0.90914077     0.08100
C660        C  0.03885336  0.31848518  0.92120538    -0.11000
C661        C  0.05005425  0.30190922  0.90427750    -0.10300
C662        C  0.06757427  0.32055755  0.88341414    -0.01200
C663        C  0.07381592  0.35623176  0.87993931    -0.11400
C664        C  0.06240148  0.37266645  0.89677702    -0.09800
H665        H  0.02479187  0.30310527  0.93690997     0.08100
H666        H  0.04502985  0.27451734  0.90754895     0.11800
H667        H  0.08736932  0.37144715  0.86410091     0.11500
H668        H  0.06755969  0.40012391  0.89354675     0.08100
C669        C  0.87062194  0.27290641  0.04300184    -0.11000
C670        C  0.86513698  0.28171613  0.06601805     0.06100
C671        C  0.87521501  0.31870698  0.07130652    -0.09800
C672        C  0.89197784  0.34647485  0.05433937    -0.11400
C673        C  0.89860613  0.33779738  0.03160420    -0.01200
C674        C  0.88672782  0.30045961  0.02599155    -0.10300
C675        C  0.85022567  0.25271827  0.08445780     0.06100
H676        H  0.87061971  0.32644598  0.08864201     0.08100
H677        H  0.90094013  0.37501109  0.05926043     0.11500
H678        H  0.89070804  0.29264265  0.00851073     0.11800
H679        H  0.86373235  0.24500745  0.03817894     0.08100
C680        C  0.82478731  0.21438680  0.07882917    -0.11000
C681        C  0.81241029  0.18699278  0.09580084    -0.10300
C682        C  0.82423841  0.19739565  0.11887747    -0.01200
C683        C  0.84878516  0.23545085  0.12485517    -0.11400
C684        C  0.86216160  0.26286117  0.10773449    -0.09800
H685        H  0.81407045  0.20541005  0.06134292     0.08100
H686        H  0.79280211  0.15769347  0.09105659     0.11800
H687        H  0.85806506  0.24385200  0.14268058     0.11500
H688        H  0.88228173  0.29186662  0.11272658     0.08100
C689        C  0.25971379  0.84421141  0.88630789    -0.11000
C690        C  0.26138525  0.86720652  0.90508308     0.06100
C691        C  0.23147950  0.87212817  0.90862041    -0.09800
C692        C  0.20088761  0.85485994  0.89370295    -0.11400
C693        C  0.19923346  0.83200745  0.87489884    -0.01200
C694        C  0.22896384  0.82679517  0.87137732    -0.10300
C695        C  0.29353816  0.88543316  0.92136635     0.06100
H696        H  0.23134080  0.88887008  0.92322221     0.08100
H697        H  0.17836765  0.85924827  0.89704158     0.11500
H698        H  0.22851402  0.80927624  0.85706841     0.11800
H699        H  0.28234555  0.83999218  0.88299504     0.08100
C700        C  0.30993737  0.86628498  0.92860950    -0.11000
C701        C  0.33735603  0.88198842  0.94584999    -0.10300
C702        C  0.34863457  0.91693577  0.95628404    -0.01200
C703        C  0.33373105  0.93692408  0.94821967    -0.11400
C704        C  0.30667456  0.92146364  0.93086562    -0.09800
H705        H  0.30033705  0.83840631  0.92179224     0.08100
H706        H  0.34826212  0.86592895  0.95192605     0.11800
H707        H  0.34238118  0.96416492  0.95579161     0.11500
H708        H  0.29544310  0.93744747  0.92523047     0.08100
C709        C  0.31864778  0.95732539  0.06365318    -0.11000
C710        C  0.34293882  0.99311288  0.07385787     0.06100
C711        C  0.38088935  0.01396568  0.06657383    -0.09800
C712        C  0.39388679  0.99992955  0.04906342    -0.11400
C713        C  0.36915426  0.96496721  0.03824001    -0.01200
C714        C  0.33156518  0.94354757  0.04594059    -0.10300
C715        C  0.32852072  0.00941899  0.09118225     0.06100
H716        H  0.40032929  0.04184135  0.07373106     0.08100
H717        H  0.42289192  0.01713658  0.04323177     0.11500
H718        H  0.31204362  0.91630880  0.03798316     0.11800
H719        H  0.28950162  0.94009257  0.06915450     0.08100
C720        C  0.29257105  0.00293090  0.08890720    -0.11000
C721        C  0.27989199  0.01999902  0.10435993    -0.10300
C722        C  0.30291897  0.04415405  0.12239524    -0.01200
C723        C  0.33855368  0.05013451  0.12493022    -0.11400
C724        C  0.35112754  0.03289474  0.10959120    -0.09800
H725        H  0.27453074  0.98547355  0.07477531     0.08100
H726        H  0.25224633  0.01468979  0.10195039     0.11800
H727        H  0.35687117  0.06824243  0.13878989     0.11500
H728        H  0.37862655  0.03797692  0.11219801     0.08100
C729        C  0.51988359  0.80649584  0.90794624    -0.11000
C730        C  0.54077011  0.84597604  0.91080867     0.06100
C731        C  0.57220369  0.86763322  0.89601150    -0.09800
C732        C  0.58334925  0.85035112  0.87964417    -0.11400
C733        C  0.56266892  0.81110067  0.87710161    -0.01200
C734        C  0.53047318  0.78929481  0.89104558    -0.10300
C735        C  0.53061552  0.86458629  0.92941496     0.06100
H736        H  0.58840016  0.89805309  0.89703827     0.08100
H737        H  0.60807989  0.86767112  0.86884859     0.11500
H738        H  0.51434973  0.75887750  0.88946293     0.11800
H739        H  0.49592602  0.78871922  0.91914571     0.08100
C740        C  0.49304598  0.84915720  0.93658028    -0.11000
C741        C  0.48396753  0.86694082  0.95403701    -0.10300
C742        C  0.51214963  0.90095468  0.96457820    -0.01200
C743        C  0.54962099  0.91635533  0.95726699    -0.11400
C744        C  0.55872749  0.89823519  0.94026936    -0.09800
H745        H  0.47046690  0.82353135  0.92854008     0.08100
H746        H  0.45485143  0.85379499  0.95933015     0.11800
H747        H  0.57220823  0.94285213  0.96446971     0.11500
H748        H  0.58805379  0.91072126  0.93578335     0.08100
C749        C  0.61644977  0.02211494  0.04707585    -0.11000
C750        C  0.60525077  0.02024182  0.07055473     0.06100
C751        C  0.56688187  0.00259389  0.07607857    -0.09800
C752        C  0.54009443  0.98534441  0.05849281    -0.11400
C753        C  0.55129651  0.98561636  0.03512315    -0.01200
C754        C  0.58979475  0.00507492  0.02955158    -0.10300
C755        C  0.63358528  0.03475398  0.08914971     0.06100
H756        H  0.55756964  0.00071756  0.09406402     0.08100
H757        H  0.51058930  0.97040729  0.06328529     0.11500
H758        H  0.59925868  0.00646176  0.01163993     0.11800
H759        H  0.64592307  0.03624899  0.04232209     0.08100
C760        C  0.66094321  0.02595755  0.08829957    -0.11000
C761        C  0.68861954  0.04029697  0.10519090    -0.10300
C762        C  0.68975517  0.06397821  0.12331075    -0.01200
C763        C  0.66184774  0.07213514  0.12449560    -0.11400
C764        C  0.63387235  0.05747434  0.10760640    -0.09800
H765        H  0.66094113  0.00795439  0.07448063     0.08100
H766        H  0.70956937  0.03332016  0.10376386     0.11800
H767        H  0.66202884  0.09038217  0.13819571     0.11500
H768        H  0.61306430  0.06466911  0.10860718     0.08100
C769        C  0.86403842  0.52051532  0.62211928    -0.11000
C770        C  0.86057423  0.52491753  0.59835192     0.06100
C771        C  0.84413814  0.54453134  0.59214018    -0.09800
C772        C  0.83267516  0.56051929  0.60941075    -0.11400
C773        C  0.83745589  0.55715704  0.63316381    -0.01200
C774        C  0.85260958  0.53637749  0.63928442    -0.10300
C775        C  0.87482531  0.50957657  0.58032089     0.06100
H776        H  0.84125053  0.54850328  0.57395683     0.08100
H777        H  0.82133130  0.57662442  0.60419623     0.11500
H778        H  0.85600533  0.53273758  0.65744618     0.11800
H779        H  0.87575624  0.50482032  0.62747362     0.08100
C780        C  0.90930633  0.51314780  0.58336028    -0.11000
C781        C  0.92234907  0.49763065  0.56698621    -0.10300
C782        C  0.90113562  0.47794785  0.54722466    -0.01200
C783        C  0.86684159  0.47472523  0.54400527    -0.11400
C784        C  0.85393836  0.49058107  0.56031682    -0.09800
H785        H  0.92630115  0.52808483  0.59842427     0.08100
H786        H  0.94886585  0.50063130  0.56999779     0.11800
H787        H  0.84989153  0.45981795  0.52892243     0.11500
H788        H  0.82717920  0.48719270  0.55757179     0.08100
C789        C  0.96283907  0.34211663  0.42141443    -0.11000
C790        C  0.99685552  0.34479749  0.42468686     0.06100
C791        C  0.01842432  0.36496938  0.44428277    -0.09800
C792        C  0.00633509  0.38209394  0.46015251    -0.11400
C793        C  0.97225506  0.37922023  0.45687977    -0.01200
C794        C  0.95063144  0.35896764  0.43735850    -0.10300
C795        C  0.00986427  0.32703472  0.40751219     0.06100
H796        H  0.04450880  0.36720211  0.44751510     0.08100
H797        H  0.02354544  0.39733718  0.47508264     0.11500
H798        H  0.92439865  0.35649680  0.43421048     0.11800
H799        H  0.94586914  0.32748918  0.40629668     0.08100
C800        C  0.98397194  0.29222902  0.39676187    -0.11000
C801        C  0.99578013  0.27663766  0.37958309    -0.10300
C802        C  0.03380038  0.29529997  0.37285151    -0.01200
C803        C  0.05993307  0.32938055  0.38412191    -0.11400
C804        C  0.04808947  0.34516503  0.40120457    -0.09800
H805        H  0.95446802  0.27707207  0.40153525     0.08100
H806        H  0.97509272  0.25011803  0.37132909     0.11800
H807        H  0.08932134  0.34458794  0.37902572     0.11500
H808        H  0.06873387  0.37221306  0.40888379     0.08100
C809        C  0.37063950  0.02365506  0.55455046    -0.11000
C810        C  0.34678421  0.00165025  0.57296807     0.06100
C811        C  0.34194633  0.96669888  0.57690303    -0.09800
C812        C  0.36017742  0.95392445  0.56272069    -0.11400
C813        C  0.38393401  0.97583047  0.54428600    -0.01200
C814        C  0.38903167  0.01090402  0.54037739    -0.10300
C815        C  0.32762521  0.01514638  0.58850566     0.06100
H816        H  0.32447305  0.94937134  0.59123208     0.08100
H817        H  0.35576575  0.92687829  0.56631060     0.11500
H818        H  0.40698907  0.02838686  0.52623672     0.11800
H819        H  0.37476304  0.05055551  0.55091401     0.08100
C820        C  0.34633485  0.05305774  0.59598466    -0.11000
C821        C  0.32970471  0.06462074  0.61265448    -0.10300
C822        C  0.29420506  0.03845424  0.62226656    -0.01200
C823        C  0.27469035  0.00109642  0.61388200    -0.11400
C824        C  0.29110132  0.98961738  0.59711592    -0.09800
H825        H  0.37455645  0.07342174  0.58982905     0.08100
H826        H  0.34540858  0.09352840  0.61897334     0.11800
H827        H  0.24706902  0.98050431  0.62082045     0.11500
H828        H  0.27548501  0.96047014  0.59128145     0.08100
C829        C  0.56171541  0.88877607  0.39401064    -0.11000
C830        C  0.52753829  0.86113565  0.40449007     0.06100
C831        C  0.50984890  0.82377782  0.39590243    -0.09800
C832        C  0.52584070  0.81459227  0.37731530    -0.11400
C833        C  0.56025260  0.84240428  0.36712121    -0.01200
C834        C  0.57808397  0.87945553  0.37602736    -0.10300
C835        C  0.51065471  0.87186215  0.42393115     0.06100
H836        H  0.48376684  0.80144684  0.40357937     0.08100
H837        H  0.51102700  0.78580234  0.37084810     0.11500
H838        H  0.60504439  0.90161338  0.36915222     0.11800
H839        H  0.57597060  0.91803481  0.39940358     0.08100
C840        C  0.53375219  0.90315424  0.43864459    -0.11000
C841        C  0.51820289  0.91577685  0.45525009    -0.10300
C842        C  0.47926973  0.89648110  0.45833803    -0.01200
C843        C  0.45597471  0.86413490  0.44472583    -0.11400
C844        C  0.47144605  0.85222096  0.42745018    -0.09800
H845        H  0.56401628  0.91829313  0.43733562     0.08100
H846        H  0.53661915  0.94056885  0.46580802     0.11800
H847        H  0.42574331  0.84904821  0.44678797     0.11500
H848        H  0.45252032  0.82839864  0.41642556     0.08100
C849        C  0.53757958  0.95969494  0.58487878    -0.11000
C850        C  0.56952072  0.99671736  0.58477788     0.06100
C851        C  0.57414780  0.02039771  0.56657193    -0.09800
C852        C  0.54717123  0.00764944  0.54918642    -0.11400
C853        C  0.51488631  0.97088151  0.54955602    -0.01200
C854        C  0.51061886  0.94693777  0.56749191    -0.10300
C855        C  0.59759335  0.01062021  0.60373297     0.06100
H856        H  0.59821156  0.04914498  0.56605683     0.08100
H857        H  0.55137394  0.02685010  0.53563639     0.11500
H858        H  0.48621578  0.91839307  0.56826101     0.11800
H859        H  0.53345783  0.94046581  0.59838675     0.08100
C860        C  0.58583519  0.00016925  0.62697376    -0.11000
C861        C  0.61206861  0.01215640  0.64470540    -0.10300
C862        C  0.65080557  0.03483015  0.63968789    -0.01200
C863        C  0.66260327  0.04621644  0.61658098    -0.11400
C864        C  0.63630243  0.03423008  0.59880471    -0.09800
H865        H  0.55626099  0.98277181  0.63149818     0.08100
H866        H  0.60200689  0.00344629  0.66239965     0.11800
H867        H  0.69221382  0.06328708  0.61209784     0.11500
H868        H  0.64634947  0.04255434  0.58107327     0.08100
C869        C  0.70318802  0.96220121  0.73591379    -0.11000
C870        C  0.66505943  0.93575981  0.74132108     0.06100
C871        C  0.63796298  0.93978869  0.73095105    -0.09800
C872        C  0.64850585  0.96907400  0.71575122    -0.11400
C873        C  0.68642227  0.99450326  0.70949752    -0.01200
C874        C  0.71369109  0.99082493  0.71998157    -0.10300
C875        C  0.65338948  0.90392573  0.75739642     0.06100
H876        H  0.60829479  0.91997355  0.73413350     0.08100
H877        H  0.62658116  0.97148749  0.70879220     0.11500
H878        H  0.74316372  0.00950502  0.71563021     0.11800
H879        H  0.72514095  0.96091546  0.74390061     0.08100
C880        C  0.67551762  0.88881388  0.75962538    -0.11000
C881        C  0.66454595  0.85918786  0.77478008    -0.10300
C882        C  0.63061971  0.84315204  0.78737072    -0.01200
C883        C  0.60803638  0.85737085  0.78492459    -0.11400
C884        C  0.61958790  0.88784913  0.77048253    -0.09800
H885        H  0.70115857  0.89945740  0.74952064     0.08100
H886        H  0.68224021  0.84835580  0.77639300     0.11800
H887        H  0.58199030  0.84565971  0.79481250     0.11500
H888        H  0.60212192  0.89904656  0.76998760     0.08100
C889        C  0.88537894  0.24908853  0.60888175    -0.11000
C890        C  0.86259335  0.26074151  0.60061574     0.06100
C891        C  0.82656660  0.24542620  0.61060340    -0.09800
C892        C  0.81391408  0.21960309  0.62866443    -0.11400
C893        C  0.83713879  0.20883540  0.63727603    -0.01200
C894        C  0.87284372  0.22355063  0.62709513    -0.10300
C895        C  0.87667661  0.28953444  0.58214909     0.06100
H896        H  0.80850879  0.25418956  0.60490569     0.08100
H897        H  0.78641182  0.20889551  0.63641379     0.11500
H898        H  0.89107626  0.21531288  0.63330161     0.11800
H899        H  0.91296294  0.25978317  0.60129541     0.08100
C900        C  0.91407727  0.32068954  0.58211029    -0.11000
C901        C  0.92687271  0.34860477  0.56535676    -0.10300
C902        C  0.90256842  0.34601343  0.54823018    -0.01200
C903        C  0.86536740  0.31456252  0.54804104    -0.11400
C904        C  0.85258524  0.28668451  0.56478614    -0.09800
H905        H  0.93325831  0.32401726  0.59540799     0.08100
H906        H  0.95568239  0.37246951  0.56602855     0.11800
H907        H  0.84592565  0.31159133  0.53505042     0.11500
H908        H  0.82379292  0.26280295  0.56409875     0.08100
C909        C  0.98685866  0.25215992  0.76110451    -0.11000
C910        C  0.95279203  0.21740734  0.76465912     0.06100
C911        C  0.95018882  0.19503104  0.78313417    -0.09800
C912        C  0.98081216  0.20721470  0.79770741    -0.11400
C913        C  0.01481617  0.24207456  0.79416637    -0.01200
C914        C  0.01741277  0.26434719  0.77566829    -0.10300
C915        C  0.92051956  0.20459463  0.74886653     0.06100
H916        H  0.92432617  0.16827000  0.78650054     0.08100
H917        H  0.97779074  0.18930634  0.81179430     0.11500
H918        H  0.04322187  0.29114904  0.77228623     0.11800
H919        H  0.99015893  0.26978141  0.74676740     0.08100
C920        C  0.91291478  0.23051505  0.74050249    -0.11000
C921        C  0.88474440  0.21936248  0.72417862    -0.10300
C922        C  0.86327107  0.18194587  0.71587399    -0.01200
C923        C  0.86964858  0.15559381  0.72497162    -0.11400
C924        C  0.89799511  0.16679384  0.74125400    -0.09800
H925        H  0.92907210  0.25962608  0.74639834     0.08100
H926        H  0.88010266  0.24018400  0.71774559     0.11800
H927        H  0.85381755  0.12665540  0.71871313     0.11500
H928        H  0.90323785  0.14613353  0.74716715     0.08100
C929        C  0.22787210  0.84249502  0.40921508    -0.11000
C930        C  0.26618430  0.86145768  0.40315702     0.06100
C931        C  0.27677834  0.86660202  0.37946750    -0.09800
C932        C  0.24973084  0.85355149  0.36220090    -0.11400
C933        C  0.21138771  0.83555517  0.36818333    -0.01200
C934        C  0.20077653  0.82987143  0.39193331    -0.10300
C935        C  0.29512357  0.87582403  0.42142062     0.06100
H936        H  0.30603979  0.88040881  0.37427538     0.08100
H937        H  0.25893476  0.85755132  0.34410272     0.11500
H938        H  0.17166171  0.81665697  0.39726833     0.11800
H939        H  0.21894558  0.83833706  0.42736867     0.08100
C940        C  0.32827046  0.91181581  0.41973427    -0.11000
C941        C  0.35607552  0.92491922  0.43656683    -0.10300
C942        C  0.35139688  0.90220912  0.45537810    -0.01200
C943        C  0.31798355  0.86641393  0.45720170    -0.11400
C944        C  0.29012496  0.85342239  0.44044588    -0.09800
H945        H  0.33262720  0.92987596  0.40540354     0.08100
H946        H  0.38139398  0.95267480  0.43469483     0.11800
H947        H  0.31346293  0.84819875  0.47146967     0.11500
H948        H  0.26500228  0.82546763  0.44208215     0.08100
C949        C  0.16182590  0.89917919  0.26877431    -0.11000
C950        C  0.19788351  0.91765220  0.25842523     0.06100
C951        C  0.22260879  0.90728423  0.26485893    -0.09800
C952        C  0.21203190  0.88011559  0.28179643    -0.11400
C953        C  0.17639373  0.86246342  0.29257181    -0.01200
C954        C  0.15115936  0.87178723  0.28559899    -0.10300
C955        C  0.21015156  0.94856005  0.24168281     0.06100
H956        H  0.25028245  0.92034641  0.25689555     0.08100
H957        H  0.23186836  0.87312280  0.28666393     0.11500
H958        H  0.12369453  0.85896875  0.29384998     0.11800
H959        H  0.14226477  0.90681331  0.26448947     0.08100
C960        C  0.18505510  0.94675102  0.22545365    -0.11000
C961        C  0.19644222  0.97641900  0.21024496    -0.10300
C962        C  0.23318137  0.00858343  0.21092985    -0.01200
C963        C  0.25835807  0.01024033  0.22699939    -0.11400
C964        C  0.24697883  0.98064943  0.24219794    -0.09800
H965        H  0.15664856  0.92224847  0.22437226     0.08100
H966        H  0.17642350  0.97416440  0.19798105     0.11800
H967        H  0.28689779  0.03456210  0.22797028     0.11500
H968        H  0.26688759  0.98330223  0.25470199     0.08100
C969        C  0.03041026  0.63630187  0.40997566    -0.11000
C970        C  0.00686650  0.59781311  0.40412077     0.06100
C971        C  0.99476860  0.58755818  0.38094461    -0.09800
C972        C  0.00511420  0.61499130  0.36422366    -0.11400
C973        C  0.02792340  0.65345192  0.37019045    -0.01200
C974        C  0.04085211  0.66378528  0.39319964    -0.10300
C975        C  0.99441240  0.56841358  0.42208692     0.06100
H976        H  0.97738170  0.55821999  0.37565458     0.08100
H977        H  0.99530115  0.60605003  0.34655081     0.11500
H978        H  0.05812872  0.69317933  0.39841214     0.11800
H979        H  0.03993300  0.64525865  0.42769285     0.08100
C980        C  0.01892115  0.57230637  0.43953060    -0.11000
C981        C  0.00717116  0.54431337  0.45614022    -0.10300
C982        C  0.97063146  0.51176085  0.45570879    -0.01200
C983        C  0.94603033  0.50805947  0.43842713    -0.11400
C984        C  0.95774072  0.53601731  0.42187123    -0.09800
H985        H  0.04745552  0.59667611  0.44009764     0.08100
H986        H  0.02684678  0.54805526  0.46920372     0.11800
H987        H  0.91763830  0.48345519  0.43762302     0.11500
H988        H  0.93785615  0.53237459  0.40900310     0.08100
C989        C  0.97337805  0.69967047  0.26335991    -0.11000
C990        C  0.93484379  0.67811732  0.26878124     0.06100
C991        C  0.92329524  0.66729118  0.29200432    -0.09800
C992        C  0.94971329  0.67706015  0.30934412    -0.11400
C993        C  0.98830107  0.69764396  0.30380983    -0.01200
C994        C  0.99978495  0.70918388  0.28064021    -0.10300
C995        C  0.90671074  0.66583602  0.25017079     0.06100
H996        H  0.89375131  0.65116887  0.29674075     0.08100
H997        H  0.93988833  0.66828374  0.32705409     0.11500
H998        H  0.02920589  0.72446445  0.27564298     0.11800
H999        H  0.98306393  0.70805154  0.24557531     0.08100
C1000       C  0.91090389  0.69092389  0.23305243    -0.11000
C1001       C  0.88385052  0.67916094  0.21579352    -0.10300
C1002       C  0.85220306  0.64201612  0.21526466    -0.01200
C1003       C  0.84855021  0.61681958  0.23212788    -0.11400
C1004       C  0.87542219  0.62860439  0.24937704    -0.09800
H1005       H  0.93473715  0.71982809  0.23329496     0.08100
H1006       H  0.88750819  0.69924126  0.20305097     0.11800
H1007       H  0.82471586  0.58791765  0.23213808     0.11500
H1008       H  0.87184589  0.60846730  0.26205432     0.08100
loop_ 
_geom_bond_atom_site_label_1 
_geom_bond_atom_site_label_2 
_geom_bond_distance 
_geom_bond_site_symmetry_2 
_ccdc_geom_bond_type 
C1            C2   1.407       .  A
C1            C6   1.403       .  A
C1          C973   1.490       .  S
C2            C3   1.415       .  A
C2            H7   1.079       .  S
C3            C4   1.413       .  A
C3           C14   1.511       .  S
C4            C5   1.404       .  A
C4            H8   1.079       .  S
C5            C6   1.402       .  A
C5          C993   1.490   1_455  S
C6            H9   1.082   1_455  S
C10          C11   1.398       .  A
C10          C15   1.402       .  A
C10         C953   1.484       .  S
C11          C12   1.402       .  A
C11          H16   1.083       .  S
C12          C13   1.409       .  A
C12         C933   1.491       .  S
C13          C14   1.415       .  A
C13          H17   1.078       .  S
C14          C15   1.416       .  A
C15          H18   1.079       .  S
C19          C20   1.401       .  A
C19          C24   1.408       .  A
C19         C922   1.489       .  S
C20          C21   1.398       .  A
C20          H25   1.084       .  S
C21          C22   1.403       .  A
C21         C893   1.482       .  S
C22          C23   1.416       .  A
C22          H26   1.079       .  S
C23          C24   1.420       .  A
C23          C32   1.516       .  S
C24          H27   1.079       .  S
C28          C29   1.398       .  A
C28          C33   1.406       .  A
C28         C862   1.490       .  S
C29          C30   1.402       .  A
C29          H34   1.082   1_545  S
C30          C31   1.409       .  A
C30         C873   1.496   1_545  S
C31          C32   1.417       .  A
C31          H35   1.076       .  S
C32          C33   1.419       .  A
C33          H36   1.079       .  S
O37         Ni45   1.919       .  S
O37          C47   1.283       .  A
O38         Ni45   1.920       .  S
O38          C48   1.281       .  A
O39         Ni45   1.921       .  S
O39          C49   1.283       .  A
O40         Ni45   1.914       .  S
O40          C50   1.281       .  A
O41         Ni46   1.922       .  S
O41          C50   1.283       .  A
O42         Ni46   1.920       .  S
O42          C49   1.282       .  A
O43         Ni46   1.918       .  S
O43          C48   1.281       .  A
O44         Ni46   1.920       .  S
O44          C47   1.282       .  A
Ni45        Ni46   2.387       .  S
C47         C813   1.484       .  S
C48         C842   1.470       .  S
C49         C853   1.486       .  S
C50         C942   1.482       .  S
O51         Ni59   1.918       .  S
O51          C61   1.282       .  A
O52         Ni59   1.919       .  S
O52          C62   1.281       .  A
O53         Ni59   1.916       .  S
O53          C63   1.282       .  A
O54         Ni59   1.918       .  S
O54          C64   1.282       .  A
O55         Ni60   1.920       .  S
O55          C64   1.282       .  A
O56         Ni60   1.923       .  S
O56          C63   1.283       .  A
O57         Ni60   1.920       .  S
O57          C62   1.283       .  A
O58         Ni60   1.921       .  S
O58          C61   1.282       .  A
Ni59        Ni60   2.386       .  S
C61         C793   1.483       .  S
C62         C782   1.483       .  S
C63         C982   1.485       .  S
C64         C902   1.484       .  S
C65          C66   1.410       .  A
C65          C70   1.403   1_556  A
C65         C742   1.498       .  S
C66          C67   1.418       .  A
C66          H71   1.078       .  S
C67          C68   1.413   1_556  A
C67          C78   1.508       .  S
C68          C69   1.401       .  A
C68          H72   1.080       .  S
C69          C70   1.400       .  A
C69         C753   1.485       .  S
C70          H73   1.083       .  S
C74          C75   1.397   1_554  A
C74          C79   1.404       .  A
C74         C713   1.483       .  S
C75          C76   1.399       .  A
C75          H80   1.084       .  S
C76          C77   1.404       .  A
C76         C702   1.481       .  S
C77          C78   1.415       .  A
C77          H81   1.080       .  S
C78          C79   1.417   1_556  A
C79          H82   1.081       .  S
C83          C84   1.399   1_556  A
C83          C88   1.405       .  A
C83         C653   1.486       .  S
C84          C85   1.400       .  A
C84          H89   1.083       .  S
C85          C86   1.403       .  A
C85         C673   1.485       .  S
C86          C87   1.412   1_554  A
C86          H90   1.081       .  S
C87          C88   1.415       .  A
C87          C94   1.502       .  S
C88          H91   1.081       .  S
C92          C93   1.403       .  A
C92          C97   1.401   1_554  A
C92         C633   1.489       .  S
C93          C94   1.414   1_554  A
C93          H98   1.080       .  S
C94          C95   1.412       .  A
C95          C96   1.407       .  A
C95          H99   1.080       .  S
C96          C97   1.404       .  A
C96         C622   1.495       .  S
C97         H100   1.082       .  S
C101        C102   1.399       .  A
C101        C106   1.407       .  A
C101        C802   1.485       .  S
C102        C103   1.398       .  A
C102        H107   1.084       .  S
C103        C104   1.401       .  A
C103        C593   1.478       .  S
C104        C105   1.414       .  A
C104        H108   1.080       .  S
C105        C106   1.417       .  A
C105        C112   1.507       .  S
C106        H109   1.081       .  S
C110        C111   1.405       .  A
C110        C115   1.402       .  A
C110        C573   1.491       .  S
C111        C112   1.416       .  A
C111        H116   1.080       .  S
C112        C113   1.414       .  A
C113        C114   1.405       .  A
C113        H117   1.080       .  S
C114        C115   1.402       .  A
C114        C553   1.488       .  S
C115        H118   1.083       .  S
O119       Ni127   1.917       .  S
O119        C129   1.280       .  A
O120       Ni127   1.913       .  S
O120        C130   1.281       .  A
O121       Ni127   1.916       .  S
O121        C131   1.282       .  A
O122       Ni127   1.923       .  S
O122        C132   1.283       .  A
O123       Ni128   1.921       .  S
O123        C132   1.282       .  A
O124       Ni128   1.923       .  S
O124        C131   1.283       .  A
O125       Ni128   1.922       .  S
O125        C130   1.283       .  A
O126       Ni128   1.923       .  S
O126        C129   1.282       .  A
Ni127      Ni128   2.386       .  S
C129        C542   1.474       .  S
C130        C962   1.482       .  S
C131        C722   1.484       .  S
C132        C582   1.487       .  S
C133        C134   1.406       .  A
C133        C138   1.398       .  A
C133        C522   1.486       .  S
C134        C135   1.420       .  A
C134        H139   1.079       .  S
C135        C136   1.418       .  A
C135        C146   1.515       .  S
C136        C137   1.405       .  A
C136        H140   1.077       .  S
C137        C138   1.398       .  A
C137        C493   1.487       .  S
C138        H141   1.084       .  S
C142        C143   1.399       .  A
C142        C147   1.407       .  A
C142        C833   1.494       .  S
C143        C144   1.396       .  A
C143        H148   1.083       .  S
C144        C145   1.404       .  A
C144        C473   1.485       .  S
C145        C146   1.417       .  A
C145        H149   1.079       .  S
C146        C147   1.420       .  A
C147        H150   1.076       .  S
O151       Ni159   1.926       .  S
O151        C161   1.283       .  A
O152       Ni159   1.922       .  S
O152        C162   1.283       .  A
O153       Ni159   1.915       .  S
O153        C163   1.281       .  A
O154       Ni159   1.913       .  S
O154        C164   1.281       .  A
O155       Ni160   1.925       .  S
O155        C164   1.283       .  A
O156       Ni160   1.924       .  S
O156        C163   1.284       .  A
O157       Ni160   1.910       .  S
O157        C162   1.280       .  A
O158       Ni160   1.910       .  S
O158        C161   1.280       .  A
Ni159      Ni160   2.386       .  S
C161       C1002   1.483       .  S
C162        C462   1.480       .  S
C163        C513   1.484       .  S
C164        C642   1.483       .  S
O165       Ni173   1.923       .  S
O165        C175   1.283       .  A
O166       Ni173   1.918       .  S
O166        C176   1.282       .  A
O167       Ni173   1.913       .  S
O167        C177   1.279       .  A
O168       Ni173   1.915       .  S
O168        C178   1.281       .  A
O169       Ni174   1.918       .  S
O169        C178   1.282       .  A
O170       Ni174   1.917       .  S
O170        C177   1.281       .  A
O171       Ni174   1.915       .  S
O171        C176   1.281       .  A
O172       Ni174   1.909       .  S
O172        C175   1.281       .  A
Ni173      Ni174   2.388       .  S
C175        C762   1.481       .  S
C176        C602   1.481       .  S
C177        C682   1.464       .  S
C178        C482   1.481       .  S
C179        C180   1.401       .  A
C179        C184   1.402       .  A
C179        C433   1.491       .  S
C180        C181   1.406   1_556  A
C180        H185   1.082       .  S
C181        C182   1.411       .  A
C181        C533   1.502       .  S
C182        C183   1.418   1_554  A
C182        H186   1.074       .  S
C183        C184   1.415       .  A
C183        C192   1.515       .  S
C184        H187   1.078       .  S
C188        C189   1.399       .  A
C188        C193   1.405       .  A
C188        C422   1.488       .  S
C189        C190   1.398   1_556  A
C189        H194   1.083       .  S
C190        C191   1.404       .  A
C190        C453   1.482       .  S
C191        C192   1.416   1_554  A
C191        H195   1.078       .  S
C192        C193   1.417       .  A
C193        H196   1.078       .  S
C197        C198   1.406       .  A
C197        C202   1.400       .  A
C197        C773   1.487       .  S
C198        C199   1.418       .  A
C198        H203   1.080       .  S
C199        C200   1.414       .  A
C199        C208   1.511       .  S
C200        C201   1.406       .  A
C200        H204   1.076       .  S
C201        C202   1.401       .  A
C201        C393   1.494       .  S
C202        H205   1.083       .  S
C206        C207   1.404       .  A
C206        C211   1.398       .  A
C206        C373   1.484       .  S
C207        C208   1.419       .  A
C207        H212   1.079       .  S
C208        C209   1.415       .  A
C209        C210   1.404       .  A
C209        H213   1.080       .  S
C210        C211   1.399       .  A
C210        C353   1.482       .  S
C211        H214   1.084       .  S
O215       Ni223   1.916       .  S
O215        C225   1.280       .  A
O216       Ni223   1.919       .  S
O216        C226   1.282       .  A
O217       Ni223   1.916       .  S
O217        C227   1.281       .  A
O218       Ni223   1.919       .  S
O218        C228   1.281       .  A
O219       Ni224   1.922       .  S
O219        C228   1.281       .  A
O220       Ni224   1.924       .  S
O220        C227   1.284       .  A
O221       Ni224   1.912       .  S
O221        C226   1.281       .  A
O222       Ni224   1.918       .  S
O222        C225   1.281       .  A
Ni223      Ni224   2.387       .  S
C225        C882   1.469       .  S
C226        C413   1.479       .  S
C227        C382   1.484       .  S
C228        C733   1.473       .  S
C229        C230   1.404       .  A
C229        C234   1.400       .  A
C229        C822   1.484       .  S
C230        C231   1.416       .  A
C230        H235   1.081       .  S
C231        C232   1.415       .  A
C231        C242   1.507       .  S
C232        C233   1.407       .  A
C232        H236   1.081       .  S
C233        C234   1.401       .  A
C233        C333   1.488       .  S
C234        H237   1.084       .  S
C238        C239   1.403       .  A
C238        C243   1.409       .  A
C238        C313   1.493       .  S
C239        C240   1.401       .  A
C239        H244   1.083       .  S
C240        C241   1.404       .  A
C240        C293   1.488       .  S
C241        C242   1.413       .  A
C241        H245   1.081       .  S
C242        C243   1.417       .  A
C243        H246   1.081       .  S
O247       Ni255   1.932       .  S
O247        C257   1.284       .  A
O248       Ni255   1.929       .  S
O248        C258   1.285       .  A
O249       Ni255   1.911       .  S
O249        C259   1.280       .  A
O250       Ni255   1.913       .  S
O250        C260   1.281       .  A
O251       Ni256   1.929       .  S
O251        C260   1.284       .  A
O252       Ni256   1.929       .  S
O252        C259   1.284       .  A
O253       Ni256   1.917       .  S
O253        C258   1.281       .  A
O254       Ni256   1.912       .  S
O254        C257   1.281       .  A
Ni255      Ni256   2.384       .  S
C257        C442   1.487       .  S
C258        C913   1.488       .  S
C259        C662   1.484       .  S
C260        C322   1.487       .  S
O261       Ni269   1.913       .  S
O261        C271   1.279       .  A
O262       Ni269   1.919       .  S
O262        C272   1.283       .  A
O263       Ni269   1.916       .  S
O263        C273   1.281       .  A
O264       Ni269   1.918       .  S
O264        C274   1.281       .  A
O265       Ni270   1.916       .  S
O265        C274   1.280       .  A
O266       Ni270   1.919       .  S
O266        C273   1.283       .  A
O267       Ni270   1.919       .  S
O267        C272   1.282       .  A
O268       Ni270   1.919       .  S
O268        C271   1.282       .  A
Ni269      Ni270   2.388       .  S
C271        C613   1.467       .  S
C272        C342   1.484       .  S
C273        C693   1.482       .  S
C274        C402   1.467       .  S
O275       Ni283   1.919       .  S
O275        C285   1.283       .  A
O276       Ni283   1.924       .  S
O276        C286   1.283       .  A
O277       Ni283   1.914       .  S
O277        C287   1.281       .  A
O278       Ni283   1.915       .  S
O278        C288   1.281       .  A
O279       Ni284   1.920       .  S
O279        C288   1.283       .  A
O280       Ni284   1.922       .  S
O280        C287   1.283       .  A
O281       Ni284   1.912       .  S
O281        C286   1.281       .  A
O282       Ni284   1.913       .  S
O282        C285   1.281       .  A
Ni283      Ni284   2.386       .  S
C285        C362   1.481       .  S
C286        C562   1.483       .  S
C287        C302   1.483       .  S
C288        C502   1.481       .  S
C289        C290   1.406       .  A
C289        C294   1.397       .  A
C289        H299   1.083       .  S
C290        C291   1.407       .  A
C290        C295   1.489       .  S
C291        C292   1.400       .  A
C291        H296   1.082       .  S
C292        C293   1.405       .  A
C292        H297   1.083       .  S
C293        C294   1.406       .  A
C294        H298   1.083       .  S
C295        C300   1.406       .  A
C295        C304   1.407       .  A
C300        C301   1.397       .  A
C300        H305   1.083       .  S
C301        C302   1.406       .  A
C301        H306   1.083       .  S
C302        C303   1.406       .  A
C303        C304   1.400       .  A
C303        H307   1.083       .  S
C304        H308   1.083       .  S
C309        C310   1.406       .  A
C309        C314   1.398       .  A
C309        H319   1.083       .  S
C310        C311   1.407       .  A
C310        C315   1.491       .  S
C311        C312   1.402       .  A
C311        H316   1.082       .  S
C312        C313   1.407       .  A
C312        H317   1.083       .  S
C313        C314   1.408       .  A
C314        H318   1.082       .  S
C315        C320   1.406       .  A
C315        C324   1.407       .  A
C320        C321   1.398       .  A
C320        H325   1.083       .  S
C321        C322   1.407       .  A
C321        H326   1.083       .  S
C322        C323   1.407       .  A
C323        C324   1.403       .  A
C323        H327   1.082       .  S
C324        H328   1.083       .  S
C329        C330   1.407       .  A
C329        C334   1.400   1_565  A
C329        H339   1.083       .  S
C330        C331   1.406       .  A
C330        C335   1.489       .  S
C331        C332   1.398       .  A
C331        H336   1.083       .  S
C332        C333   1.406   1_565  A
C332        H337   1.083   1_565  S
C333        C334   1.405       .  A
C334        H338   1.083       .  S
C335        C340   1.407       .  A
C335        C344   1.406       .  A
C340        C341   1.401       .  A
C340        H345   1.083       .  S
C341        C342   1.407       .  A
C341        H346   1.083       .  S
C342        C343   1.405       .  A
C343        C344   1.398       .  A
C343        H347   1.083       .  S
C344        H348   1.083       .  S
C349        C350   1.406       .  A
C349        C354   1.396       .  A
C349        H359   1.083       .  S
C350        C351   1.407       .  A
C350        C355   1.486       .  S
C351        C352   1.398       .  A
C351        H356   1.083       .  S
C352        C353   1.404       .  A
C352        H357   1.083       .  S
C353        C354   1.404       .  A
C354        H358   1.083       .  S
C355        C360   1.406       .  A
C355        C364   1.405       .  A
C360        C361   1.396       .  A
C360        H365   1.083       .  S
C361        C362   1.404       .  A
C361        H366   1.083       .  S
C362        C363   1.407       .  A
C363        C364   1.399       .  A
C363        H367   1.083       .  S
C364        H368   1.083       .  S
C369        C370   1.409       .  A
C369        C374   1.401       .  A
C369        H379   1.083       .  S
C370        C371   1.407       .  A
C370        C375   1.492       .  S
C371        C372   1.397       .  A
C371        H376   1.082       .  S
C372        C373   1.403       .  A
C372        H377   1.083       .  S
C373        C374   1.405       .  A
C374        H378   1.083       .  S
C375        C380   1.407       .  A
C375        C384   1.408       .  A
C380        C381   1.401       .  A
C380        H385   1.083       .  S
C381        C382   1.407       .  A
C381        H386   1.083       .  S
C382        C383   1.404       .  A
C383        C384   1.397       .  A
C383        H387   1.083       .  S
C384        H388   1.083       .  S
C389        C390   1.407       .  A
C389        C394   1.395       .  A
C389        H399   1.082       .  S
C390        C391   1.408       .  A
C390        C395   1.494       .  S
C391        C392   1.399       .  A
C391        H396   1.082       .  S
C392        C393   1.407       .  A
C392        H397   1.082       .  S
C393        C394   1.407       .  A
C394        H398   1.082       .  S
C395        C400   1.410       .  A
C395        C404   1.410       .  A
C400        C401   1.397       .  A
C400        H405   1.082       .  S
C401        C402   1.400   1_655  A
C401        H406   1.083   1_655  S
C402        C403   1.400       .  A
C403        C404   1.398   1_455  A
C403        H407   1.084       .  S
C404        H408   1.082       .  S
C409        C410   1.407       .  A
C409        C414   1.397       .  A
C409        H419   1.083       .  S
C410        C411   1.405       .  A
C410        C415   1.487       .  S
C411        C412   1.398       .  A
C411        H416   1.083       .  S
C412        C413   1.406       .  A
C412        H417   1.083       .  S
C413        C414   1.404       .  A
C414        H418   1.083       .  S
C415        C420   1.406       .  A
C415        C424   1.406       .  A
C420        C421   1.397       .  A
C420        H425   1.083       .  S
C421        C422   1.406       .  A
C421        H426   1.083       .  S
C422        C423   1.406       .  A
C423        C424   1.398       .  A
C423        H427   1.083       .  S
C424        H428   1.083       .  S
C429        C430   1.405       .  A
C429        C434   1.402       .  A
C429        H439   1.083       .  S
C430        C431   1.405       .  A
C430        C435   1.487       .  S
C431        C432   1.397       .  A
C431        H436   1.083       .  S
C432        C433   1.406       .  A
C432        H437   1.083       .  S
C433        C434   1.408       .  A
C434        H438   1.083       .  S
C435        C440   1.407       .  A
C435        C444   1.404       .  A
C440        C441   1.405       .  A
C440        H445   1.083       .  S
C441        C442   1.408       .  A
C441        H446   1.083       .  S
C442        C443   1.407       .  A
C443        C444   1.396       .  A
C443        H447   1.083       .  S
C444        H448   1.083       .  S
C449        C450   1.407       .  A
C449        C454   1.399       .  A
C449        H459   1.083       .  S
C450        C451   1.405       .  A
C450        C455   1.485       .  S
C451        C452   1.395       .  A
C451        H456   1.083       .  S
C452        C453   1.404       .  A
C452        H457   1.083       .  S
C453        C454   1.404       .  A
C454        H458   1.083       .  S
C455        C460   1.404       .  A
C455        C464   1.406       .  A
C460        C461   1.397       .  A
C460        H465   1.083       .  S
C461        C462   1.407       .  A
C461        H466   1.083       .  S
C462        C463   1.404       .  A
C463        C464   1.397       .  A
C463        H467   1.083       .  S
C464        H468   1.083       .  S
C469        C470   1.404       .  A
C469        C474   1.396       .  A
C469        H479   1.083       .  S
C470        C471   1.406       .  A
C470        C475   1.483       .  S
C471        C472   1.399       .  A
C471        H476   1.083       .  S
C472        C473   1.404       .  A
C472        H477   1.083       .  S
C473        C474   1.407       .  A
C474        H478   1.083       .  S
C475        C480   1.406   1_565  A
C475        C484   1.404       .  A
C480        C481   1.397       .  A
C480        H485   1.083       .  S
C481        C482   1.406       .  A
C481        H486   1.083       .  S
C482        C483   1.406       .  A
C483        C484   1.398   1_545  A
C483        H487   1.083   1_545  S
C484        H488   1.083       .  S
C489        C490   1.407       .  A
C489        C494   1.401       .  A
C489        H499   1.083       .  S
C490        C491   1.405       .  A
C490        C495   1.486       .  S
C491        C492   1.395       .  A
C491        H496   1.083       .  S
C492        C493   1.406       .  A
C492        H497   1.083       .  S
C493        C494   1.406       .  A
C494        H498   1.083       .  S
C495        C500   1.406       .  A
C495        C504   1.405       .  A
C500        C501   1.397       .  A
C500        H505   1.083       .  S
C501        C502   1.404       .  A
C501        H506   1.083       .  S
C502        C503   1.407       .  A
C503        C504   1.400       .  A
C503        H507   1.083       .  S
C504        H508   1.083       .  S
C509        C510   1.406       .  A
C509        C514   1.401       .  A
C509        H519   1.083       .  S
C510        C511   1.407       .  A
C510        C515   1.489       .  S
C511        C512   1.398       .  A
C511        H516   1.083       .  S
C512        C513   1.404       .  A
C512        H517   1.083       .  S
C513        C514   1.408       .  A
C514        H518   1.083       .  S
C515        C520   1.408       .  A
C515        C524   1.406       .  A
C520        C521   1.401       .  A
C520        H525   1.083       .  S
C521        C522   1.405       .  A
C521        H526   1.083       .  S
C522        C523   1.405       .  A
C523        C524   1.397       .  A
C523        H527   1.083       .  S
C524        H528   1.083       .  S
C529        C530   1.411       .  A
C529        C534   1.403       .  A
C529        H539   1.081       .  S
C530        C531   1.407       .  A
C530        C535   1.502       .  S
C531        C532   1.395       .  A
C531        H536   1.081       .  S
C532        C533   1.409       .  A
C532        H537   1.081       .  S
C533        C534   1.409       .  A
C534        H538   1.081       .  S
C535        C540   1.411       .  A
C535        C544   1.413       .  A
C540        C541   1.400       .  A
C540        H545   1.081       .  S
C541        C542   1.402       .  A
C541        H546   1.084       .  S
C542        C543   1.399       .  A
C543        C544   1.399       .  A
C543        H547   1.083       .  S
C544        H548   1.081       .  S
C549        C550   1.406       .  A
C549        C554   1.402       .  A
C549        H559   1.083       .  S
C550        C551   1.405       .  A
C550        C555   1.486       .  S
C551        C552   1.395       .  A
C551        H556   1.083       .  S
C552        C553   1.405       .  A
C552        H557   1.083       .  S
C553        C554   1.407       .  A
C554        H558   1.083       .  S
C555        C560   1.406       .  A
C555        C564   1.405       .  A
C560        C561   1.402       .  A
C560        H565   1.083       .  S
C561        C562   1.407       .  A
C561        H566   1.083       .  S
C562        C563   1.405       .  A
C563        C564   1.395       .  A
C563        H567   1.083       .  S
C564        H568   1.083       .  S
C569        C570   1.407       .  A
C569        C574   1.403       .  A
C569        H579   1.082       .  S
C570        C571   1.405       .  A
C570        C575   1.490       .  S
C571        C572   1.397       .  A
C571        H576   1.083       .  S
C572        C573   1.406       .  A
C572        H577   1.083       .  S
C573        C574   1.407       .  A
C574        H578   1.083       .  S
C575        C580   1.406       .  A
C575        C584   1.407       .  A
C580        C581   1.402       .  A
C580        H585   1.083       .  S
C581        C582   1.408       .  A
C581        H586   1.083       .  S
C582        C583   1.405       .  A
C583        C584   1.398       .  A
C583        H587   1.083       .  S
C584        H588   1.083       .  S
C589        C590   1.407       .  A
C589        C594   1.399   1_655  A
C589        H599   1.083       .  S
C590        C591   1.406       .  A
C590        C595   1.485       .  S
C591        C592   1.395   1_655  A
C591        H596   1.083       .  S
C592        C593   1.403       .  A
C592        H597   1.083       .  S
C593        C594   1.403       .  A
C594        H598   1.083       .  S
C595        C600   1.405       .  A
C595        C604   1.406       .  A
C600        C601   1.399       .  A
C600        H605   1.083       .  S
C601        C602   1.407       .  A
C601        H606   1.083       .  S
C602        C603   1.404       .  A
C603        C604   1.396       .  A
C603        H607   1.083       .  S
C604        H608   1.083       .  S
C609        C610   1.409   1_655  A
C609        C614   1.396   1_655  A
C609        H619   1.082       .  S
C610        C611   1.410       .  A
C610        C615   1.493   1_455  S
C611        C612   1.398       .  A
C611        H616   1.082       .  S
C612        C613   1.400       .  A
C612        H617   1.083       .  S
C613        C614   1.399       .  A
C614        H618   1.084       .  S
C615        C620   1.406       .  A
C615        C624   1.408   1_655  A
C620        C621   1.395       .  A
C620        H625   1.082       .  S
C621        C622   1.407       .  A
C621        H626   1.082       .  S
C622        C623   1.408       .  A
C623        C624   1.399   1_655  A
C623        H627   1.082   1_655  S
C624        H628   1.082       .  S
C629        C630   1.406       .  A
C629        C634   1.403       .  A
C629        H639   1.082       .  S
C630        C631   1.403       .  A
C630        C635   1.484       .  S
C631        C632   1.394       .  A
C631        H636   1.084       .  S
C632        C633   1.406       .  A
C632        H637   1.083       .  S
C633        C634   1.407       .  A
C634        H638   1.083       .  S
C635        C640   1.405       .  A
C635        C644   1.404       .  A
C640        C641   1.403       .  A
C640        H645   1.083       .  S
C641        C642   1.408       .  A
C641        H646   1.082       .  S
C642        C643   1.405       .  A
C643        C644   1.394       .  A
C643        H647   1.083       .  S
C644        H648   1.083       .  S
C649        C650   1.407       .  A
C649        C654   1.399   1_455  A
C649        H659   1.082       .  S
C650        C651   1.405       .  A
C650        C655   1.487       .  S
C651        C652   1.397       .  A
C651        H656   1.083       .  S
C652        C653   1.406   1_455  A
C652        H657   1.083       .  S
C653        C654   1.404       .  A
C654        H658   1.083       .  S
C655        C660   1.408       .  A
C655        C664   1.404       .  A
C660        C661   1.400       .  A
C660        H665   1.083       .  S
C661        C662   1.405       .  A
C661        H666   1.083       .  S
C662        C663   1.407       .  A
C663        C664   1.398       .  A
C663        H667   1.083       .  S
C664        H668   1.083       .  S
C669        C670   1.407       .  A
C669        C674   1.394       .  A
C669        H679   1.081       .  S
C670        C671   1.408       .  A
C670        C675   1.491       .  S
C671        C672   1.398       .  A
C671        H676   1.082       .  S
C672        C673   1.405       .  A
C672        H677   1.083       .  S
C673        C674   1.404       .  A
C674        H678   1.083       .  S
C675        C680   1.409       .  A
C675        C684   1.410       .  A
C680        C681   1.395       .  A
C680        H685   1.082       .  S
C681        C682   1.399       .  A
C681        H686   1.084       .  S
C682        C683   1.400       .  A
C683        C684   1.398       .  A
C683        H687   1.084       .  S
C684        H688   1.082       .  S
C689        C690   1.406       .  A
C689        C694   1.400       .  A
C689        H699   1.083       .  S
C690        C691   1.407       .  A
C690        C695   1.489       .  S
C691        C692   1.395       .  A
C691        H696   1.083       .  S
C692        C693   1.404       .  A
C692        H697   1.083       .  S
C693        C694   1.407       .  A
C694        H698   1.083       .  S
C695        C700   1.408       .  A
C695        C704   1.407       .  A
C700        C701   1.400       .  A
C700        H705   1.082       .  S
C701        C702   1.404       .  A
C701        H706   1.083       .  S
C702        C703   1.403       .  A
C703        C704   1.396       .  A
C703        H707   1.083       .  S
C704        H708   1.083       .  S
C709        C710   1.407       .  A
C709        C714   1.398       .  A
C709        H719   1.082       .  S
C710        C711   1.409   1_565  A
C710        C715   1.492   1_565  S
C711        C712   1.399   1_545  A
C711        H716   1.082       .  S
C712        C713   1.403       .  A
C712        H717   1.083   1_565  S
C713        C714   1.404       .  A
C714        H718   1.083       .  S
C715        C720   1.408       .  A
C715        C724   1.406       .  A
C720        C721   1.400       .  A
C720        H725   1.083   1_545  S
C721        C722   1.405       .  A
C721        H726   1.083       .  S
C722        C723   1.406       .  A
C723        C724   1.398       .  A
C723        H727   1.083       .  S
C724        H728   1.082       .  S
C729        C730   1.410       .  A
C729        C734   1.401       .  A
C729        H739   1.082       .  S
C730        C731   1.410       .  A
C730        C735   1.497       .  S
C731        C732   1.398       .  A
C731        H736   1.082       .  S
C732        C733   1.400       .  A
C732        H737   1.084       .  S
C733        C734   1.402       .  A
C734        H738   1.083       .  S
C735        C740   1.409       .  A
C735        C744   1.406       .  A
C740        C741   1.403       .  A
C740        H745   1.082       .  S
C741        C742   1.408       .  A
C741        H746   1.082       .  S
C742        C743   1.408       .  A
C743        C744   1.395       .  A
C743        H747   1.082       .  S
C744        H748   1.082       .  S
C749        C750   1.404       .  A
C749        C754   1.394       .  A
C749        H759   1.084       .  S
C750        C751   1.405       .  A
C750        C755   1.481       .  S
C751        C752   1.401   1_545  A
C751        H756   1.083       .  S
C752        C753   1.406       .  A
C752        H757   1.083       .  S
C753        C754   1.405   1_565  A
C754        H758   1.083       .  S
C755        C760   1.404       .  A
C755        C764   1.405       .  A
C760        C761   1.394       .  A
C760        H765   1.083       .  S
C761        C762   1.405       .  A
C761        H766   1.083       .  S
C762        C763   1.407       .  A
C763        C764   1.401       .  A
C763        H767   1.083       .  S
C764        H768   1.083       .  S
C769        C770   1.404       .  A
C769        C774   1.395       .  A
C769        H779   1.083       .  S
C770        C771   1.408       .  A
C770        C775   1.487       .  S
C771        C772   1.403       .  A
C771        H776   1.082       .  S
C772        C773   1.406       .  A
C772        H777   1.083       .  S
C773        C774   1.405       .  A
C774        H778   1.083       .  S
C775        C780   1.407       .  A
C775        C784   1.405       .  A
C780        C781   1.397       .  A
C780        H785   1.083       .  S
C781        C782   1.405       .  A
C781        H786   1.083       .  S
C782        C783   1.407       .  A
C783        C784   1.401       .  A
C783        H787   1.083       .  S
C784        H788   1.083       .  S
C789        C790   1.407       .  A
C789        C794   1.398       .  A
C789        H799   1.082       .  S
C790        C791   1.407   1_655  A
C790        C795   1.490   1_655  S
C791        C792   1.400       .  A
C791        H796   1.083       .  S
C792        C793   1.406   1_455  A
C792        H797   1.083       .  S
C793        C794   1.405       .  A
C794        H798   1.083       .  S
C795        C800   1.407   1_455  A
C795        C804   1.408       .  A
C800        C801   1.397       .  A
C800        H805   1.083       .  S
C801        C802   1.405   1_655  A
C801        H806   1.083       .  S
C802        C803   1.404       .  A
C803        C804   1.400       .  A
C803        H807   1.083       .  S
C804        H808   1.082       .  S
C809        C810   1.406       .  A
C809        C814   1.401       .  A
C809        H819   1.083       .  S
C810        C811   1.407   1_545  A
C810        C815   1.490       .  S
C811        C812   1.397       .  A
C811        H816   1.082       .  S
C812        C813   1.405       .  A
C812        H817   1.083       .  S
C813        C814   1.407   1_565  A
C814        H818   1.083       .  S
C815        C820   1.408       .  A
C815        C824   1.407   1_545  A
C820        C821   1.402       .  A
C820        H825   1.083       .  S
C821        C822   1.404       .  A
C821        H826   1.083       .  S
C822        C823   1.404       .  A
C823        C824   1.397   1_545  A
C823        H827   1.083   1_545  S
C824        H828   1.083       .  S
C829        C830   1.406       .  A
C829        C834   1.392       .  A
C829        H839   1.081       .  S
C830        C831   1.411       .  A
C830        C835   1.498       .  S
C831        C832   1.404       .  A
C831        H836   1.082       .  S
C832        C833   1.407       .  A
C832        H837   1.082       .  S
C833        C834   1.406       .  A
C834        H838   1.083       .  S
C835        C840   1.412       .  A
C835        C844   1.410       .  A
C840        C841   1.396       .  A
C840        H845   1.081       .  S
C841        C842   1.398       .  A
C841        H846   1.083       .  S
C842        C843   1.402       .  A
C843        C844   1.401       .  A
C843        H847   1.083       .  S
C844        H848   1.082       .  S
C849        C850   1.407       .  A
C849        C854   1.400       .  A
C849        H859   1.083       .  S
C850        C851   1.406   1_565  A
C850        C855   1.491   1_565  S
C851        C852   1.400       .  A
C851        H856   1.083       .  S
C852        C853   1.407   1_545  A
C852        H857   1.083       .  S
C853        C854   1.406       .  A
C854        H858   1.083       .  S
C855        C860   1.406       .  A
C855        C864   1.408       .  A
C860        C861   1.398       .  A
C860        H865   1.083   1_545  S
C861        C862   1.407       .  A
C861        H866   1.083       .  S
C862        C863   1.405       .  A
C863        C864   1.401       .  A
C863        H867   1.083       .  S
C864        H868   1.083       .  S
C869        C870   1.410       .  A
C869        C874   1.401       .  A
C869        H879   1.081       .  S
C870        C871   1.406       .  A
C870        C875   1.497       .  S
C871        C872   1.393       .  A
C871        H876   1.081       .  S
C872        C873   1.408       .  A
C872        H877   1.082       .  S
C873        C874   1.407       .  A
C874        H878   1.082   1_565  S
C875        C880   1.411       .  A
C875        C884   1.411       .  A
C880        C881   1.399       .  A
C880        H885   1.081       .  S
C881        C882   1.401       .  A
C881        H886   1.083       .  S
C882        C883   1.399       .  A
C883        C884   1.396       .  A
C883        H887   1.084       .  S
C884        H888   1.081       .  S
C889        C890   1.407       .  A
C889        C894   1.398       .  A
C889        H899   1.083       .  S
C890        C891   1.408       .  A
C890        C895   1.489       .  S
C891        C892   1.399       .  A
C891        H896   1.083       .  S
C892        C893   1.403       .  A
C892        H897   1.083       .  S
C893        C894   1.404       .  A
C894        H898   1.083       .  S
C895        C900   1.407       .  A
C895        C904   1.406       .  A
C900        C901   1.399       .  A
C900        H905   1.083       .  S
C901        C902   1.406       .  A
C901        H906   1.083       .  S
C902        C903   1.406       .  A
C903        C904   1.398       .  A
C903        H907   1.083       .  S
C904        H908   1.083       .  S
C909        C910   1.407       .  A
C909        C914   1.399   1_655  A
C909        H919   1.083       .  S
C910        C911   1.407       .  A
C910        C915   1.493       .  S
C911        C912   1.402       .  A
C911        H916   1.083       .  S
C912        C913   1.408   1_655  A
C912        H917   1.083       .  S
C913        C914   1.405       .  A
C914        H918   1.083       .  S
C915        C920   1.407       .  A
C915        C924   1.408       .  A
C920        C921   1.399       .  A
C920        H925   1.083       .  S
C921        C922   1.405       .  A
C921        H926   1.083       .  S
C922        C923   1.406       .  A
C923        C924   1.402       .  A
C923        H927   1.083       .  S
C924        H928   1.083       .  S
C929        C930   1.405       .  A
C929        C934   1.399       .  A
C929        H939   1.083       .  S
C930        C931   1.403       .  A
C930        C935   1.484       .  S
C931        C932   1.396       .  A
C931        H936   1.083       .  S
C932        C933   1.408       .  A
C932        H937   1.083       .  S
C933        C934   1.407       .  A
C934        H938   1.082       .  S
C935        C940   1.406       .  A
C935        C944   1.404       .  A
C940        C941   1.399       .  A
C940        H945   1.083       .  S
C941        C942   1.406       .  A
C941        H946   1.083       .  S
C942        C943   1.407       .  A
C943        C944   1.397       .  A
C943        H947   1.083       .  S
C944        H948   1.083       .  S
C949        C950   1.407       .  A
C949        C954   1.399       .  A
C949        H959   1.083       .  S
C950        C951   1.407       .  A
C950        C955   1.489       .  S
C951        C952   1.397       .  A
C951        H956   1.083       .  S
C952        C953   1.405       .  A
C952        H957   1.083       .  S
C953        C954   1.404       .  A
C954        H958   1.083       .  S
C955        C960   1.407       .  A
C955        C964   1.406       .  A
C960        C961   1.399       .  A
C960        H965   1.083       .  S
C961        C962   1.405   1_565  A
C961        H966   1.083       .  S
C962        C963   1.406       .  A
C963        C964   1.397   1_545  A
C963        H967   1.083       .  S
C964        H968   1.083       .  S
C969        C970   1.407       .  A
C969        C974   1.401       .  A
C969        H979   1.083       .  S
C970        C971   1.407   1_455  A
C970        C975   1.492   1_455  S
C971        C972   1.398   1_655  A
C971        H976   1.083       .  S
C972        C973   1.406       .  A
C972        H977   1.083   1_455  S
C973        C974   1.406       .  A
C974        H978   1.083       .  S
C975        C980   1.407   1_655  A
C975        C984   1.407       .  A
C980        C981   1.401       .  A
C980        H985   1.082       .  S
C981        C982   1.406   1_455  A
C981        H986   1.083       .  S
C982        C983   1.406       .  A
C983        C984   1.398       .  A
C983        H987   1.083       .  S
C984        H988   1.083       .  S
C989        C990   1.403       .  A
C989        C994   1.398       .  A
C989        H999   1.083       .  S
C990        C991   1.406       .  A
C990        C995   1.484       .  S
C991        C992   1.399       .  A
C991        H996   1.083       .  S
C992        C993   1.406       .  A
C992        H997   1.083       .  S
C993        C994   1.408       .  A
C994        H998   1.083   1_655  S
C995       C1000   1.406       .  A
C995       C1004   1.403       .  A
C1000      C1001   1.401       .  A
C1000      H1005   1.083       .  S
C1001      C1002   1.406       .  A
C1001      H1006   1.083       .  S
C1002      C1003   1.406       .  A
C1003      C1004   1.395       .  A
C1003      H1007   1.083       .  S
C1004      H1008   1.083       .  S
