geometry optimzed in LAMMPS
_audit_creation_date              2020-11-30 
_audit_creation_method            'lammps2cif' 
_symmetry_space_group_name_H-M    'P1' 
_symmetry_Int_Tables_number       1 
_symmetry_cell_setting            triclinic 
loop_ 
_symmetry_equiv_pos_as_xyz 
  x,y,z 
_cell_length_a                    42.95530452 
_cell_length_b                    42.76682336578657 
_cell_length_c                    42.3936349975135 
_cell_angle_alpha                 88.9553789062222 
_cell_angle_beta                  90.64127154650667 
_cell_angle_gamma                 89.74244529399508 
loop_ 
_atom_site_label 
_atom_site_type_symbol 
_atom_site_fract_x 
_atom_site_fract_y 
_atom_site_fract_z 
_atom_site_charge 
In1        In  0.97185430  0.81108659  0.43815145     1.36900
C2          C  0.96660984  0.78001107  0.38432450     0.78800
O3          O  0.91985067  0.81855615  0.43334893    -0.59600
O4          O  0.94627425  0.84838368  0.46298687    -0.50500
C5          C  0.99371040  0.78213765  0.49000958     0.71500
O6          O  0.00474739  0.77735999  0.46310980    -0.45400
C7          C  0.01012052  0.85705802  0.42249202     0.76200
O8          O  0.95005873  0.77336017  0.40798474    -0.57300
O9          O  0.98139798  0.85771093  0.41628365    -0.47400
O10         O  0.98672579  0.80060993  0.38896546    -0.53700
C11         C  0.92015193  0.84212673  0.45095225     0.86400
O12         O  0.96892365  0.79779934  0.48966662    -0.55600
O13         O  0.01918381  0.83358239  0.43849641    -0.58900
In14       In  0.82136716  0.94500151  0.41802827     1.36900
C15         C  0.79723234  0.94116554  0.35997248     0.78800
O16         O  0.83968189  0.99399915  0.42087311    -0.59600
O17         O  0.86989029  0.95823171  0.40521376    -0.50500
C18         C  0.78794121  0.96692677  0.46542288     0.71500
O19         O  0.78374301  0.97615810  0.43727561    -0.45400
C20         C  0.84859954  0.89083079  0.43292360     0.76200
O21         O  0.78364663  0.92945958  0.38369124    -0.57300
O22         O  0.85667397  0.91656048  0.44441830    -0.47400
O23         O  0.82218699  0.95503035  0.36609331    -0.53700
C24         C  0.86596472  0.98691653  0.41022340     0.86400
O25         O  0.80602193  0.94384701  0.46856624    -0.55600
O26         O  0.82472642  0.89224326  0.41529020    -0.58900
In27       In  0.71497577  0.97144898  0.07472919     1.36900
C28         C  0.75149819  0.96301637  0.12552755     0.78800
O29         O  0.68084481  0.01146888  0.07358124    -0.59600
O30         O  0.67327542  0.97367410  0.10554076    -0.50500
C31         C  0.74234591  0.00698824  0.03048897     0.71500
O32         O  0.74023307  0.01462237  0.05887821    -0.45400
C33         C  0.68520499  0.92055766  0.05554031     0.76200
O34         O  0.75614319  0.94845484  0.10026648    -0.57300
O35         O  0.68123506  0.94721836  0.04303887    -0.47400
O36         O  0.73006002  0.98307182  0.12389465    -0.53700
C37         C  0.66442226  0.00002774  0.09523211     0.86400
O38         O  0.73412014  0.97924080  0.02517947    -0.55600
O39         O  0.70718716  0.91893872  0.07554377    -0.58900
In40       In  0.57565903  0.82539555  0.07897216     1.36900
C41         C  0.57790145  0.79324871  0.13365000     0.78800
O42         O  0.62841850  0.82603398  0.08448758    -0.59600
O43         O  0.60603630  0.86292788  0.05888744    -0.50500
C44         C  0.55465480  0.79979928  0.02581208     0.71500
O45         O  0.54657789  0.78998113  0.05271467    -0.45400
C46         C  0.53311462  0.86842216  0.09162194     0.76200
O47         O  0.58807033  0.78185808  0.10839612    -0.57300
O48         O  0.56172378  0.87218132  0.09711953    -0.47400
O49         O  0.56636925  0.82015706  0.13066633    -0.53700
C50         C  0.63120980  0.85188949  0.06992329     0.86400
O51         O  0.57597647  0.81981743  0.02630921    -0.55600
O52         O  0.52641674  0.84340183  0.07799392    -0.58900
C53         C  0.77573233  0.92625593  0.21052587     0.87700
C54         C  0.77772895  0.94387102  0.24196349    -0.52500
C55         C  0.77831568  0.92410126  0.26786458     0.10600
C56         C  0.77695905  0.88930659  0.26000436     0.21600
C57         C  0.80348045  0.90356828  0.21136860    -0.53200
C58         C  0.80397882  0.88430726  0.23734640     0.10700
C59         C  0.74692675  0.90550945  0.21370683    -0.52800
C60         C  0.74749553  0.88617341  0.23965941     0.11300
H61         H  0.77880069  0.96915408  0.24356774     0.15800
H62         H  0.77770618  0.87353488  0.28113543     0.01600
H63         H  0.82096009  0.90260989  0.19308584     0.16100
H64         H  0.72792405  0.90575144  0.19655552     0.15900
C65         C  0.93573248  0.76145147  0.29644090     0.87700
C66         C  0.91389487  0.73333326  0.29579418    -0.52500
C67         C  0.89550399  0.73262684  0.26952071     0.10600
C68         C  0.90059121  0.75986374  0.24616122     0.21600
C69         C  0.95436061  0.75980525  0.26552820    -0.53200
C70         C  0.93554891  0.75906074  0.23910747     0.10700
C71         C  0.91447957  0.79015464  0.29204775    -0.52800
C72         C  0.89595445  0.78940776  0.26568688     0.11300
H73         H  0.91259679  0.71585295  0.31465774     0.15800
H74         H  0.88570836  0.75873748  0.22462168     0.01600
H75         H  0.97960531  0.75901593  0.26464581     0.16100
H76         H  0.91361830  0.80897857  0.30888638     0.15900
C77         C  0.60893444  0.76833367  0.21960478     0.87700
C78         C  0.63128687  0.74066484  0.21786908    -0.52500
C79         C  0.65229767  0.73866799  0.24225558     0.10600
C80         C  0.64842561  0.76463976  0.26665177     0.21600
C81         C  0.59313145  0.76480575  0.25188508    -0.53200
C82         C  0.61408935  0.76292116  0.27658982     0.10700
C83         C  0.62978341  0.79692811  0.22257533    -0.52800
C84         C  0.65052772  0.79525371  0.24713451     0.11300
H85         H  0.63081276  0.72433583  0.19853575     0.15800
H86         H  0.66524296  0.76313427  0.28671173     0.01600
H87         H  0.56809182  0.76369788  0.25490883     0.16100
H88         H  0.62908096  0.81630525  0.20562626     0.15900
In89       In  0.57525380  0.70839906  0.42005730     1.36900
C90         C  0.59039155  0.73789665  0.36622725     0.78800
O91         O  0.62686247  0.69800154  0.42382958    -0.59600
O92         O  0.59446810  0.66632430  0.44450692    -0.50500
C93         C  0.55270996  0.73608011  0.47092016     0.71500
O94         O  0.54204339  0.74154104  0.44353622    -0.45400
C95         C  0.53030679  0.67014480  0.40205424     0.76200
O96         O  0.59635126  0.74965958  0.39276355    -0.57300
O97         O  0.55843706  0.66193092  0.40415338    -0.47400
O98         O  0.57676619  0.71208308  0.36752325    -0.53700
C99         C  0.62241094  0.67219626  0.43812111     0.86400
O100        O  0.57733552  0.72009694  0.47168182    -0.55600
O101        O  0.52479413  0.69770333  0.41049879    -0.58900
In102      In  0.72001468  0.56622400  0.41733799     1.36900
C103        C  0.74797684  0.57581880  0.36227177     0.78800
O104        O  0.70685257  0.51617192  0.40960390    -0.59600
O105        O  0.67201497  0.55134743  0.40435664    -0.50500
C106        C  0.74361460  0.54315157  0.47134346     0.71500
O107        O  0.75096670  0.53242719  0.44491664    -0.45400
C108        C  0.69276475  0.62024858  0.42895064     0.76200
O109        O  0.76250873  0.57896315  0.38813767    -0.57300
O110        O  0.68049244  0.59400777  0.43457479    -0.47400
O111        O  0.72012991  0.56764116  0.36482822    -0.53700
C112        C  0.67909022  0.52285058  0.40226529     0.86400
O113        O  0.72781303  0.56792951  0.46978566    -0.55600
O114        O  0.72027825  0.61908480  0.41869340    -0.58900
In115      In  0.96684931  0.71280429  0.09255843     1.36900
C116        C  0.95813059  0.73967229  0.14837361     0.78800
O117        O  0.91463075  0.70590093  0.08784308    -0.59600
O118        O  0.94470218  0.68353876  0.05574256    -0.50500
C119        C  0.00115711  0.74719697  0.05277097     0.71500
O120        O  0.00887255  0.74180425  0.08105830    -0.45400
C121        C  0.99716592  0.66047655  0.10724431     0.76200
O122        O  0.94550255  0.75050586  0.12331695    -0.57300
O123        O  0.96916878  0.66493748  0.11442099    -0.47400
O124        O  0.97556927  0.71649894  0.14449744    -0.53700
C125        C  0.91741732  0.68672458  0.06567707     0.86400
O126        O  0.97397364  0.73849242  0.04574034    -0.55600
O127        O  0.00926282  0.68214765  0.09116463    -0.58900
In128      In  0.82548873  0.57487666  0.07381891     1.36900
C129        C  0.79548705  0.57313530  0.12838670     0.78800
O130        O  0.84902853  0.52793392  0.07143859    -0.59600
O131        O  0.87259969  0.56493804  0.09416982    -0.50500
C132        C  0.79808953  0.55404930  0.02150271     0.71500
O133        O  0.78963394  0.54558764  0.04869860    -0.45400
C134        C  0.84909491  0.63205865  0.06804548     0.76200
O135        O  0.78568524  0.58936600  0.10507660    -0.57300
O136        O  0.86103709  0.60834935  0.05558973    -0.47400
O137        O  0.81898922  0.55661264  0.12313593    -0.53700
C138        C  0.87232607  0.53640577  0.08735599     0.86400
O139        O  0.81775088  0.57573588  0.02120625    -0.55600
O140        O  0.82344123  0.62706854  0.08140628    -0.58900
C141        C  0.77585236  0.60022997  0.21585360     0.87700
C142        C  0.77240729  0.58154519  0.24692924    -0.52500
C143        C  0.77070299  0.60035271  0.27270407     0.10600
C144        C  0.77232682  0.63557190  0.26497012     0.21600
C145        C  0.74830705  0.62287963  0.21470710    -0.53200
C146        C  0.74645029  0.64181441  0.24023344     0.10700
C147        C  0.80450494  0.62081189  0.22080443    -0.52800
C148        C  0.80268829  0.63943709  0.24650680     0.11300
H149        H  0.77138514  0.55619536  0.24842632     0.15800
H150        H  0.77100559  0.65052742  0.28605112     0.01600
H151        H  0.73200856  0.62411715  0.19494163     0.16100
H152        H  0.82400824  0.62140857  0.20469858     0.15900
In153      In  0.59345616  0.07160057  0.19810690     1.36900
C154        C  0.64806162  0.08372602  0.22656381     0.78800
O155        O  0.60512332  0.02222748  0.18550351    -0.59600
O156        O  0.60611335  0.05744848  0.14957771    -0.50500
C157        C  0.54444327  0.04642063  0.22723336     0.71500
O158        O  0.57077251  0.03336520  0.22689808    -0.45400
C159        C  0.57222658  0.11917517  0.16290613     0.76200
O160        O  0.62258122  0.08640531  0.24098417    -0.57300
O161        O  0.56530614  0.09106029  0.15818659    -0.47400
O162        O  0.64524641  0.07639315  0.19822550    -0.53700
C163        C  0.61105581  0.02928554  0.15724783     0.86400
O164        O  0.54426319  0.07410058  0.21662544    -0.55600
O165        O  0.58883879  0.12366264  0.18729170    -0.58900
In166      In  0.59068190  0.21603382  0.05342109     1.36900
C167        C  0.64785090  0.23868325  0.06213017     0.78800
O168        O  0.58979986  0.21688567  0.10667706    -0.59600
O169        O  0.56974063  0.17833953  0.08291240    -0.50500
C170        C  0.54083067  0.24580006  0.02952770     0.71500
O171        O  0.56816969  0.25303265  0.02172990    -0.45400
C172        C  0.60111796  0.17566459  0.00811232     0.76200
O173        O  0.62394467  0.25581450  0.06471936    -0.57300
O174        O  0.60124724  0.16777296  0.03688376    -0.47400
O175        O  0.64237610  0.21086757  0.05509966    -0.53700
C176        C  0.57756895  0.19011788  0.10889367     0.86400
O177        O  0.53935861  0.22654503  0.05225855    -0.55600
O178        O  0.59422189  0.20382626  0.00245050    -0.58900
C179        C  0.79456089  0.09620082  0.25578017     0.87700
C180        C  0.76256582  0.07998722  0.25351224    -0.52500
C181        C  0.73813686  0.10084365  0.25124003     0.10600
C182        C  0.74795923  0.13528058  0.25135521     0.21600
C183        C  0.79585941  0.11798795  0.22691121    -0.53200
C184        C  0.77158060  0.13864982  0.22459415     0.10700
C185        C  0.79196328  0.11801960  0.28382825    -0.52800
C186        C  0.76762852  0.13858605  0.28160121     0.11300
H187        H  0.75958244  0.05479633  0.25332201     0.15800
H188        H  0.72826401  0.15213079  0.24926282     0.01600
H189        H  0.81481915  0.11762781  0.21016270     0.16100
H190        H  0.80818891  0.11730830  0.30368039     0.15900
In191      In  0.92105266  0.21116769  0.44376926     1.36900
C192        C  0.86732681  0.24137476  0.43305316     0.78800
O193        O  0.92396409  0.20076206  0.39152552    -0.59600
O194        O  0.95661409  0.17946299  0.42329678    -0.50500
C195        C  0.96100233  0.24572617  0.47705018     0.71500
O196        O  0.93298121  0.24206120  0.48438564    -0.45400
C197        C  0.90444136  0.16067391  0.47643822     0.76200
O198        O  0.89185961  0.24892090  0.41853351    -0.57300
O199        O  0.89742985  0.16504631  0.44781645    -0.47400
O200        O  0.87073807  0.21971410  0.45314479    -0.53700
C201        C  0.94567987  0.18097163  0.39563143     0.86400
O202        O  0.96795270  0.23483118  0.45057342    -0.55600
O203        O  0.92140337  0.18147235  0.48818950    -0.58900
In204      In  0.93443863  0.06338657  0.30965827     1.36900
C205        C  0.87993425  0.06353137  0.27836711     0.78800
O206        O  0.93585571  0.01614261  0.33326986    -0.59600
O207        O  0.91781604  0.05422423  0.35889089    -0.50500
C208        C  0.98753230  0.04082849  0.28602417     0.71500
O209        O  0.96121328  0.03071268  0.27770571    -0.45400
C210        C  0.94006144  0.12155979  0.33081740     0.76200
O211        O  0.90417257  0.07550725  0.26663321    -0.57300
O212        O  0.95223842  0.09801146  0.34449260    -0.47400
O213        O  0.88411929  0.04996903  0.30459047    -0.53700
C214        C  0.92323103  0.02527424  0.35811515     0.86400
O215        O  0.98634081  0.06476504  0.30276168    -0.55600
O216        O  0.92678503  0.11576900  0.30487844    -0.58900
C217        C  0.72112734  0.26373454  0.41408838     0.87700
C218        C  0.72179193  0.23464450  0.39361812    -0.52500
C219        C  0.74655245  0.23376712  0.37372599     0.10600
C220        C  0.76820894  0.26215767  0.37635871     0.21600
C221        C  0.75284603  0.26405871  0.43146059    -0.53200
C222        C  0.77755273  0.26325679  0.41128861     0.10700
C223        C  0.72212030  0.29136331  0.39068803    -0.52800
C224        C  0.74673348  0.29054559  0.37068776     0.11300
H225        H  0.70420126  0.21650724  0.39474751     0.15800
H226        H  0.78828405  0.26137293  0.36020405     0.01600
H227        H  0.75547511  0.26424864  0.45696293     0.16100
H228        H  0.70469737  0.30986422  0.39005006     0.15900
In229      In  0.59386135  0.45862654  0.30278785     1.36900
C230        C  0.64534489  0.44585415  0.27047474     0.78800
O231        O  0.59478487  0.50079048  0.33340974    -0.59600
O232        O  0.62415162  0.46230776  0.34577729    -0.50500
C233        C  0.55320907  0.49343861  0.26890268     0.71500
O234        O  0.58142854  0.50037405  0.27222037    -0.45400
C235        C  0.56839574  0.41200593  0.33570543     0.76200
O236        O  0.62011289  0.43150900  0.26543237    -0.57300
O237        O  0.56154089  0.44030674  0.33944926    -0.47400
O238        O  0.64357465  0.46713302  0.29034407    -0.53700
C239        C  0.61565323  0.48981375  0.35158401     0.86400
O240        O  0.54631797  0.46669070  0.27962746    -0.55600
O241        O  0.58657610  0.40696943  0.31308797    -0.58900
In242      In  0.58445480  0.31809228  0.44824507     1.36900
C243        C  0.63726204  0.28573336  0.44628560     0.78800
O244        O  0.58614005  0.31630183  0.39495334    -0.59600
O245        O  0.56224221  0.35385755  0.41617282    -0.50500
C246        C  0.53714619  0.28966736  0.47708919     0.71500
O247        O  0.56513545  0.28239113  0.48234446    -0.45400
C248        C  0.60112315  0.36628748  0.48295945     0.76200
O249        O  0.61298536  0.27701955  0.43186859    -0.57300
O250        O  0.60815116  0.36411594  0.45432555    -0.47400
O251        O  0.63409538  0.30976615  0.46251322    -0.53700
C252        C  0.57229085  0.34220182  0.39113957     0.86400
O253        O  0.53310383  0.30888821  0.45451593    -0.55600
O254        O  0.58415411  0.34463050  0.49343713    -0.58900
C255        C  0.79488807  0.26051551  0.08168281     0.87700
C256        C  0.79612185  0.23336358  0.10542217    -0.52500
C257        C  0.77133999  0.23217396  0.12523713     0.10600
C258        C  0.74714262  0.25822030  0.11889790     0.21600
C259        C  0.76369590  0.25705014  0.06384705    -0.53200
C260        C  0.73863092  0.25601041  0.08368010     0.10700
C261        C  0.79086952  0.28968287  0.10155747    -0.52800
C262        C  0.76587241  0.28860555  0.12108635     0.11300
H263        H  0.81546765  0.21691988  0.10693384     0.15800
H264        H  0.72676347  0.25731637  0.13477996     0.01600
H265        H  0.76159383  0.25584497  0.03835221     0.16100
H266        H  0.80713134  0.30908266  0.10100171     0.15900
In267      In  0.93142909  0.46183090  0.19834742     1.36900
C268        C  0.87568286  0.45586105  0.22431581     0.78800
O269        O  0.93606718  0.50890596  0.17437361    -0.59600
O270        O  0.91482990  0.47217494  0.14920180    -0.50500
C271        C  0.97312346  0.48686163  0.23745853     0.71500
O272        O  0.94473505  0.49403652  0.23748981    -0.45400
C273        C  0.94971803  0.41036822  0.16932640     0.76200
O274        O  0.89895409  0.44007738  0.23408456    -0.57300
O275        O  0.96369284  0.43610564  0.16708559    -0.47400
O276        O  0.88112552  0.47489902  0.20215459    -0.53700
C277        C  0.92271950  0.50044536  0.14940621     0.86400
O278        O  0.97972564  0.46425028  0.22005565    -0.55600
O279        O  0.92787870  0.40981745  0.18907634    -0.58900
In280      In  0.93275958  0.31651108  0.05793581     1.36900
C281        C  0.88036090  0.28351189  0.05589303     0.78800
O282        O  0.92364140  0.31715700  0.11052378    -0.59600
O283        O  0.95316481  0.35167148  0.09043179    -0.50500
C284        C  0.98527166  0.29044204  0.03735403     0.71500
O285        O  0.95891204  0.28423493  0.02582313    -0.45400
C286        C  0.91785728  0.36345030  0.01885180     0.76200
O287        O  0.90435144  0.27333573  0.07040735    -0.57300
O288        O  0.91161981  0.36336475  0.04778035    -0.47400
O289        O  0.88365979  0.30937414  0.04201948    -0.53700
C290        C  0.93923199  0.34176400  0.11463914     0.86400
O291        O  0.98438282  0.30683794  0.06164805    -0.55600
O292        O  0.93430118  0.34075735  0.01028243    -0.58900
C293        C  0.78964427  0.42410666  0.24196379     0.87700
C294        C  0.75826716  0.44154152  0.24422962    -0.52500
C295        C  0.73319024  0.42172377  0.24468897     0.10600
C296        C  0.74190712  0.38695189  0.24290832     0.21600
C297        C  0.79010973  0.40088786  0.26977376    -0.53200
C298        C  0.76504360  0.38137118  0.27044617     0.10700
C299        C  0.78661702  0.40400973  0.21273058    -0.52800
C300        C  0.76172307  0.38438945  0.21316083     0.11300
H301        H  0.75614361  0.46675384  0.24600490     0.15800
H302        H  0.72151131  0.37110740  0.24294795     0.01600
H303        H  0.80845297  0.40042104  0.28762196     0.16100
H304        H  0.80365485  0.40423091  0.19396007     0.15900
In305      In  0.95010463  0.43071587  0.79413297     1.36900
C306        C  0.94517868  0.37587433  0.76555458     0.78800
O307        O  0.99851441  0.42884890  0.81451942    -0.59600
O308        O  0.96116123  0.41352910  0.84311025    -0.50500
C309        C  0.97727797  0.47891740  0.76452300     0.71500
O310        O  0.98159151  0.45098229  0.75678591    -0.45400
C311        C  0.89524779  0.44334487  0.82031157     0.76200
O312        O  0.93444500  0.40085506  0.75311060    -0.57300
O313        O  0.92077561  0.45413914  0.83005606    -0.47400
O314        O  0.95874836  0.37918339  0.79165607    -0.53700
C315        C  0.99006606  0.41731617  0.84052203     0.86400
O316        O  0.95565578  0.48255102  0.78398144    -0.55600
O317        O  0.89719642  0.42826635  0.79505782    -0.58900
In318      In  0.81274722  0.43682424  0.94330972     1.36900
C319        C  0.77685231  0.38683052  0.93451571     0.78800
O320        O  0.81972629  0.43878398  0.88989601    -0.59600
O321        O  0.85098569  0.46296965  0.91972929    -0.50500
C322        C  0.78481761  0.48403338  0.97237084     0.71500
O323        O  0.77864400  0.45581636  0.97819263    -0.45400
C324        C  0.85734787  0.41727344  0.98288695     0.76200
O325        O  0.76936548  0.41352811  0.92344831    -0.57300
O326        O  0.85733480  0.41110556  0.95395982    -0.47400
O327        O  0.80212401  0.38594527  0.94969047    -0.53700
C328        C  0.84444197  0.45459729  0.89218266     0.86400
O329        O  0.80231368  0.48829524  0.94903523    -0.55600
O330        O  0.83475884  0.43371904  0.99152925    -0.58900
In331      In  0.93908869  0.09123908  0.68658567     1.36900
C332        C  0.92744777  0.14500077  0.71585318     0.78800
O333        O  0.98861609  0.09471314  0.67069400    -0.59600
O334        O  0.95277051  0.11208887  0.64014683    -0.50500
C335        C  0.96479328  0.04361946  0.71901615     0.71500
O336        O  0.97589325  0.07085056  0.71910331    -0.45400
C337        C  0.89232966  0.06956524  0.65180320     0.76200
O338        O  0.92158848  0.11882732  0.72875218    -0.57300
O339        O  0.92050647  0.06325642  0.64707196    -0.47400
O340        O  0.93820006  0.14341087  0.68861289    -0.53700
C341        C  0.98155478  0.10878644  0.64525463     0.86400
O342        O  0.93857531  0.04159454  0.70564862    -0.55600
O343        O  0.88738915  0.08586067  0.67588715    -0.58900
In344      In  0.79831690  0.08667121  0.54013172     1.36900
C345        C  0.76856715  0.14118545  0.54508629     0.78800
O346        O  0.79597573  0.08681974  0.59357458    -0.59600
O347        O  0.83453679  0.06522626  0.57172553    -0.50500
C348        C  0.77199151  0.03821697  0.51134890     0.71500
O349        O  0.76322095  0.06599337  0.50644989    -0.45400
C350        C  0.84519973  0.10309452  0.50351802     0.76200
O351        O  0.75776534  0.11614502  0.55681311    -0.57300
O352        O  0.84682748  0.10373019  0.53316300    -0.47400
O353        O  0.79335028  0.13802572  0.53007956    -0.53700
C354        C  0.82240144  0.07405561  0.59701620     0.86400
O355        O  0.79128747  0.03487512  0.53374053    -0.50800
O356        O  0.82012303  0.09245961  0.49253737    -0.58900
C357        C  0.91272372  0.29055923  0.74620728     0.87700
C358        C  0.92937811  0.25875415  0.74292437    -0.52500
C359        C  0.90910263  0.23399962  0.74278663     0.10600
C360        C  0.87478850  0.24338499  0.74574792     0.21600
C361        C  0.88887943  0.29207522  0.71913606    -0.53200
C362        C  0.86898976  0.26727786  0.71876041     0.10700
C363        C  0.89335320  0.28721675  0.77607661    -0.52800
C364        C  0.87320092  0.26269429  0.77578751     0.11300
H365        H  0.95436785  0.25614097  0.74034393     0.15800
H366        H  0.85863428  0.22319504  0.74591488     0.01600
H367        H  0.88813831  0.31094008  0.70163448     0.16100
H368        H  0.89399377  0.30417669  0.79485880     0.15900
C369        C  0.74673259  0.30471783  0.90206697     0.87700
C370        C  0.71930539  0.30630929  0.87872831    -0.52500
C371        C  0.71732534  0.28106295  0.85945536     0.10600
C372        C  0.74336536  0.25659935  0.86558494     0.21600
C373        C  0.74300286  0.27336623  0.92032139    -0.53200
C374        C  0.74142454  0.24810619  0.90078720     0.10700
C375        C  0.77544571  0.30007698  0.88177103    -0.52800
C376        C  0.77386794  0.27480214  0.86281445     0.11300
H377        H  0.70279588  0.32561194  0.87791498     0.15800
H378        H  0.74254113  0.23596675  0.85011262     0.01600
H379        H  0.74223634  0.27131137  0.94586478     0.16100
H380        H  0.79535991  0.31567081  0.88223326     0.15900
C381        C  0.74867620  0.22621976  0.57834737     0.87700
C382        C  0.71925648  0.22777557  0.59820624    -0.52500
C383        C  0.71845798  0.25273614  0.61783873     0.10600
C384        C  0.74738473  0.27364951  0.61578107     0.21600
C385        C  0.75022192  0.25804527  0.56076699    -0.53200
C386        C  0.74960436  0.28289183  0.58077747     0.10700
C387        C  0.77563629  0.22665205  0.60216119    -0.52800
C388        C  0.77505072  0.25137811  0.62205480     0.11300
H389        H  0.70106453  0.21024148  0.59732414     0.15800
H390        H  0.74633662  0.29407189  0.63149037     0.01600
H391        H  0.75119270  0.26066871  0.53527302     0.16100
H392        H  0.79377575  0.20887430  0.60282214     0.15900
In393      In  0.55740634  0.44549821  0.68640707     1.36900
C394        C  0.56575413  0.38879569  0.71291469     0.78800
O395        O  0.50735529  0.44507309  0.67041203    -0.59600
O396        O  0.54223374  0.42983582  0.63898412    -0.50500
C397        C  0.53325114  0.49338057  0.71777428     0.71500
O398        O  0.52673567  0.46534113  0.72444665    -0.45400
C399        C  0.60844390  0.46174943  0.65494545     0.76200
O400        O  0.57695607  0.41305854  0.72525754    -0.57300
O401        O  0.58122142  0.46888916  0.64614902    -0.47400
O402        O  0.55040704  0.39370528  0.68799887    -0.53700
C403        C  0.51364387  0.43364061  0.64406830     0.86400
O404        O  0.55496036  0.49654546  0.69832635    -0.55600
O405        O  0.61019900  0.44767400  0.68143401    -0.58900
In406      In  0.70809689  0.43147695  0.55432226     1.36900
C407        C  0.73311663  0.37458205  0.56132102     0.78800
O408        O  0.70572458  0.43131728  0.60783563    -0.59600
O409        O  0.67423803  0.46003285  0.58146324    -0.50500
C410        C  0.74387741  0.47324556  0.52457819     0.71500
O411        O  0.74628922  0.44426838  0.52066544    -0.45400
C412        C  0.66071492  0.42037773  0.51548453     0.76200
O413        O  0.74620874  0.39842975  0.57258605    -0.57300
O414        O  0.66060302  0.41316848  0.54439003    -0.47400
O415        O  0.70818998  0.38002797  0.54648752    -0.53700
C416        C  0.68196748  0.44879840  0.60811088     0.86400
O417        O  0.72574360  0.48076223  0.54641195    -0.55600
O418        O  0.68444734  0.43508967  0.50655789    -0.58900
In419      In  0.69579054  0.10153145  0.93023289     1.36900
C420        C  0.72405155  0.15667650  0.92254420     0.78800
O421        O  0.68470918  0.10251713  0.87772400    -0.59600
O422        O  0.65955637  0.07193354  0.90808725    -0.50500
C423        C  0.72986532  0.05513308  0.95659760     0.71500
O424        O  0.72940640  0.08244538  0.96720394    -0.45400
C425        C  0.64932097  0.11610663  0.96774866     0.76200
O426        O  0.73066938  0.13358108  0.90556005    -0.57300
O427        O  0.65108784  0.12614772  0.93972782    -0.47400
O428        O  0.70525298  0.15079338  0.94423085    -0.53700
C429        C  0.66275874  0.08312267  0.88067426     0.86400
O430        O  0.71657735  0.05264792  0.93015443    -0.55600
O431        O  0.67029188  0.09691652  0.97602930    -0.58900
In432      In  0.54752505  0.10198631  0.79193231     1.36900
C433        C  0.54610717  0.15623270  0.76011364     0.78800
O434        O  0.50109937  0.10227466  0.81601350    -0.59600
O435        O  0.54085615  0.11829750  0.84094726    -0.50500
C436        C  0.52504884  0.04911910  0.76859817     0.71500
O437        O  0.51287927  0.07544209  0.76243851    -0.45400
C438        C  0.60532195  0.09398710  0.81351941     0.76200
O439        O  0.55475763  0.13121701  0.74725722    -0.57300
O440        O  0.58187535  0.08113514  0.82570548    -0.47400
O441        O  0.53732872  0.15310034  0.78808788    -0.53700
C442        C  0.51179711  0.11466293  0.84053389     0.86400
O443        O  0.55062757  0.05033617  0.78321376    -0.55600
O444        O  0.59965265  0.10946611  0.78842125    -0.58900
C445        C  0.57746742  0.24075128  0.73761228     0.87700
C446        C  0.56189925  0.27325510  0.73576555    -0.52500
C447        C  0.58308164  0.29715954  0.73428175     0.10600
C448        C  0.61723256  0.28633902  0.73465815     0.21600
C449        C  0.59855522  0.23948021  0.70896323    -0.53200
C450        C  0.61954202  0.26327639  0.70730600     0.10700
C451        C  0.59970774  0.24194110  0.76605182    -0.52800
C452        C  0.62072687  0.26574588  0.76460346     0.11300
H453        H  0.53687282  0.27697177  0.73528410     0.15800
H454        H  0.63410720  0.30587368  0.73305134     0.01600
H455        H  0.59788998  0.22049578  0.69228200     0.16100
H456        H  0.59890097  0.22516823  0.78558337     0.15900
In457      In  0.05615215  0.21627348  0.58060511     1.36900
C458        C  0.05658020  0.24673656  0.63525884     0.78800
O459        O  0.01025914  0.19166155  0.57584122    -0.59600
O460        O  0.04673829  0.16910725  0.60177819    -0.50500
C461        C  0.03208528  0.24293085  0.52816328     0.71500
O462        O  0.02246847  0.24925543  0.55532456    -0.45400
C463        C  0.11283812  0.19238865  0.57201948     0.76200
O464        O  0.06874317  0.25815375  0.61061011    -0.57300
O465        O  0.08820662  0.18005020  0.56184406    -0.47400
O466        O  0.04316057  0.22105650  0.63148221    -0.53700
C467        C  0.01882293  0.16839495  0.59240402     0.86400
O468        O  0.05638721  0.22639633  0.52815931    -0.55600
O469        O  0.10886060  0.21844166  0.58495056    -0.58900
In470      In  0.20389233  0.07614596  0.58048500     1.36900
C471        C  0.23543872  0.08118005  0.63473895     0.78800
O472        O  0.19110410  0.12767923  0.58270944    -0.59600
O473        O  0.16791980  0.09894612  0.54953863    -0.50500
C474        C  0.23748067  0.05352303  0.53340615     0.71500
O475        O  0.23629886  0.04050953  0.56022337    -0.45400
C476        C  0.15750678  0.03796442  0.59475265     0.76200
O477        O  0.21423497  0.06165109  0.63045035    -0.57300
O478        O  0.15791559  0.06629117  0.60228628    -0.47400
O479        O  0.24167706  0.09809336  0.61087492    -0.53700
C480        C  0.16976867  0.12535861  0.56205396     0.86400
O481        O  0.22446666  0.07992028  0.53168813    -0.55600
O482        O  0.18030800  0.02929657  0.57859907    -0.58900
C483        C  0.25670561  0.10995477  0.72166855     0.87700
C484        C  0.28458550  0.13184211  0.72228955    -0.52500
C485        C  0.28557363  0.15091668  0.74777646     0.10600
C486        C  0.25773591  0.14644816  0.77012569     0.21600
C487        C  0.25806761  0.09193713  0.75354373    -0.53200
C488        C  0.25855061  0.11144496  0.77897974     0.10700
C489        C  0.22827040  0.13122483  0.72373338    -0.52800
C490        C  0.22847302  0.15026938  0.74909869     0.11300
H491        H  0.30169064  0.13255200  0.70361736     0.15800
H492        H  0.25802879  0.16177027  0.79098106     0.01600
H493        H  0.25911027  0.06662189  0.75576287     0.16100
H494        H  0.20959022  0.13145676  0.70620796     0.15900
In495      In  0.45601894  0.22354645  0.91640278     1.36900
C496        C  0.44421256  0.25525501  0.86269128     0.78800
O497        O  0.49811222  0.19239685  0.91676568    -0.59600
O498        O  0.45814759  0.17821824  0.89094894    -0.50500
C499        C  0.49120989  0.25499327  0.95726129     0.71500
O500        O  0.49766582  0.25296416  0.92851914    -0.45400
C501        C  0.40754846  0.19467817  0.94192887     0.76200
O502        O  0.43084595  0.26196610  0.88814135    -0.57300
O503        O  0.43531366  0.18912773  0.95000894    -0.47400
O504        O  0.46421478  0.23384069  0.86520017    -0.53700
C505        C  0.48590043  0.17245357  0.89908769     0.86400
O506        O  0.46473609  0.24457521  0.96433663    -0.55600
O507        O  0.40398133  0.21743138  0.92274377    -0.58900
In508      In  0.31344966  0.08559606  0.92493677     1.36900
C509        C  0.28312732  0.09177565  0.86976614     0.78800
O510        O  0.31149783  0.13863947  0.92351152    -0.59600
O511        O  0.35171476  0.11590061  0.94256066    -0.50500
C512        C  0.28986521  0.06194805  0.97827901     0.71500
O513        O  0.27832158  0.05615936  0.95152899    -0.45400
C514        C  0.35397430  0.04131743  0.91032703     0.76200
O515        O  0.27029274  0.09861006  0.89549615    -0.57300
O516        O  0.36033760  0.07003067  0.90827482    -0.47400
O517        O  0.31053098  0.08175079  0.87252566    -0.53700
C518        C  0.33864869  0.14140585  0.93482220     0.86400
O519        O  0.31055522  0.08265491  0.97788645    -0.55600
O520        O  0.32762158  0.03527523  0.92149210    -0.58900
C521        C  0.41304919  0.28131424  0.71660765     0.87700
C522        C  0.43297882  0.28164585  0.74709074    -0.52500
C523        C  0.41547514  0.27898203  0.77391894     0.10600
C524        C  0.38028451  0.27627350  0.76769307     0.21600
C525        C  0.39433969  0.25108620  0.71882639    -0.53200
C526        C  0.37712640  0.24823476  0.74562325     0.10700
C527        C  0.38916752  0.30760015  0.72029592    -0.52800
C528        C  0.37200817  0.30495480  0.74695166     0.11300
H529        H  0.45821462  0.28303927  0.74741898     0.15800
H530        H  0.36642165  0.27435013  0.78959314     0.01600
H531        H  0.39395239  0.23398800  0.70018816     0.16100
H532        H  0.38576403  0.32650834  0.70310047     0.15900
In533      In  0.29240063  0.46657446  0.58447420     1.36900
C534        C  0.26600363  0.45591260  0.63991225     0.78800
O535        O  0.29221729  0.41351310  0.58321832    -0.59600
O536        O  0.32918088  0.43852435  0.56165256    -0.50500
C537        C  0.26456395  0.49615989  0.53592828     0.71500
O538        O  0.25643535  0.50010254  0.56400439    -0.45400
C539        C  0.33494877  0.50826630  0.60015566     0.76200
O540        O  0.25167250  0.45055089  0.61434461    -0.57300
O541        O  0.34120001  0.47963447  0.59753044    -0.47400
O542        O  0.29304806  0.46643130  0.63688757    -0.53700
C543        C  0.31825266  0.41228524  0.56969740     0.86400
O544        O  0.28344476  0.47390463  0.53243155    -0.55600
O545        O  0.30729964  0.51575904  0.59342811    -0.58900
In546      In  0.44143546  0.33236932  0.57207522     1.36900
C547        C  0.43912498  0.30184358  0.62734745     0.78800
O548        O  0.48525571  0.36033193  0.56748456    -0.59600
O549        O  0.44910820  0.37757070  0.59626740    -0.50500
C550        C  0.46559323  0.30116561  0.52398061     0.71500
O551        O  0.47624160  0.29868063  0.55169956    -0.45400
C552        C  0.38931065  0.36242839  0.55575352     0.76200
O553        O  0.42003975  0.29638532  0.60519824    -0.57300
O554        O  0.41558812  0.36888115  0.54461166    -0.47400
O555        O  0.46021005  0.32089609  0.62046699    -0.53700
C556        C  0.47633808  0.38101054  0.58615612     0.86400
O557        O  0.44036521  0.31605153  0.52171473    -0.55600
O558        O  0.38888403  0.33868598  0.57401831    -0.58900
C559        C  0.08766290  0.26792377  0.72165967     0.87700
C560        C  0.07146967  0.27017639  0.75397506    -0.52500
C561        C  0.09227188  0.27112914  0.77887203     0.10600
C562        C  0.12645830  0.26984642  0.76912192     0.21600
C563        C  0.10976011  0.29584720  0.72023575    -0.53200
C564        C  0.13007496  0.29696848  0.74516181     0.10700
C565        C  0.10892065  0.23925276  0.72478699    -0.52800
C566        C  0.12935238  0.24020556  0.74956885     0.11300
H567        H  0.04641049  0.27141665  0.75680528     0.15800
H568        H  0.14299771  0.27040367  0.78941192     0.01600
H569        H  0.10906892  0.31335974  0.70135216     0.16100
H570        H  0.10872242  0.22043490  0.70789838     0.15900
In571      In  0.06472135  0.32314379  0.92457347     1.36900
C572        C  0.07525353  0.29475217  0.86989243     0.78800
O573        O  0.01723972  0.34553747  0.92285054    -0.59600
O574        O  0.05447354  0.36808452  0.89918235    -0.50500
C575        C  0.03645974  0.28725081  0.96799497     0.71500
O576        O  0.03205771  0.28432648  0.93885568    -0.45400
C577        C  0.11166009  0.35682729  0.94750782     0.76200
O578        O  0.09081047  0.28772663  0.89462412    -0.57300
O579        O  0.08358789  0.36105482  0.95447146    -0.47400
O580        O  0.05475754  0.31526097  0.87351647    -0.53700
C581        C  0.02579634  0.36766990  0.90501170     0.86400
O582        O  0.05808006  0.30576208  0.97491933    -0.55600
O583        O  0.11653971  0.33347615  0.93026379    -0.58900
In584      In  0.19991698  0.47094481  0.92978475     1.36900
C585        C  0.22679553  0.47026405  0.87354563     0.78800
O586        O  0.20368609  0.41812751  0.92668484    -0.59600
O587        O  0.16771869  0.43741465  0.95409231    -0.50500
C588        C  0.23275701  0.49992305  0.97462857     0.71500
O589        O  0.23848136  0.50258693  0.94570218    -0.45400
C590        C  0.14961637  0.50507821  0.91673929     0.76200
O591        O  0.23783336  0.45527439  0.89710512    -0.57300
O592        O  0.15231190  0.47691786  0.90906815    -0.47400
O593        O  0.20319322  0.48666427  0.87904841    -0.53700
C594        C  0.17920923  0.41325304  0.94212831     0.86400
O595        O  0.21237711  0.47974914  0.98115641    -0.55600
O596        O  0.17205143  0.51550437  0.93268432    -0.58900
C597        C  0.24594176  0.43824769  0.78783214     0.87700
C598        C  0.27518106  0.41759844  0.78826869    -0.52500
C599        C  0.27635929  0.39734271  0.76379960     0.10600
C600        C  0.24840330  0.40006613  0.74094983     0.21600
C601        C  0.24570725  0.45504572  0.75545996    -0.53200
C602        C  0.24692734  0.43471595  0.73090493     0.10700
C603        C  0.21866624  0.41540554  0.78645106    -0.52800
C604        C  0.21992905  0.39515956  0.76197025     0.11300
H605        H  0.29269090  0.41804351  0.80694416     0.15800
H606        H  0.24998370  0.38391311  0.72082610     0.01600
H607        H  0.24494147  0.48029391  0.75227295     0.16100
H608        H  0.19999880  0.41540316  0.80352332     0.15900
In609      In  0.20533887  0.60173956  0.06782962     1.36900
C610        C  0.23323546  0.65702486  0.07630376     0.78800
O611        O  0.19139977  0.60600801  0.01698774    -0.59600
O612        O  0.15810125  0.61739981  0.05173827    -0.50500
C613        C  0.23275017  0.55113569  0.04505798     0.71500
O614        O  0.23406152  0.57756139  0.03149477    -0.45400
C615        C  0.17192413  0.58152553  0.11621882     0.76200
O616        O  0.24741314  0.63150805  0.08205934    -0.57300
O617        O  0.16575849  0.57570445  0.08787656    -0.47400
O618        O  0.20551817  0.65399162  0.06749850    -0.53700
C619        C  0.16446394  0.61585584  0.02285416     0.86400
O620        O  0.22223187  0.55170886  0.07263997    -0.55600
O621        O  0.19647727  0.59725055  0.12061134    -0.58900
In622      In  0.06496664  0.58865931  0.21384024     1.36900
C623        C  0.06742299  0.64171691  0.24526607     0.78800
O624        O  0.11744352  0.59422982  0.21486887    -0.59600
O625        O  0.09565360  0.57192325  0.17609289    -0.50500
C626        C  0.04342183  0.53540001  0.23826846     0.71500
O627        O  0.03308926  0.56172996  0.24607337    -0.45400
C628        C  0.02595853  0.60298803  0.16702471     0.76200
O629        O  0.07953294  0.61679441  0.25633893    -0.57300
O630        O  0.05502212  0.60572582  0.16490598    -0.47400
O631        O  0.05301915  0.63895811  0.21960238    -0.53700
C632        C  0.12044870  0.58247437  0.18793553     0.86400
O633        O  0.06730940  0.53652562  0.22145255    -0.55600
O634        O  0.01670682  0.59129975  0.19272270    -0.58900
C635        C  0.09979679  0.72691415  0.26149935     0.87700
C636        C  0.12419581  0.72713116  0.28794329    -0.52500
C637        C  0.14330739  0.75240291  0.28661565     0.10600
C638        C  0.13618200  0.77516821  0.25908441     0.21600
C639        C  0.08223048  0.75820573  0.26396630    -0.53200
C640        C  0.10163446  0.78353190  0.26263513     0.10700
C641        C  0.11837659  0.72964148  0.23086250    -0.52800
C642        C  0.13774935  0.75490888  0.22951964     0.11300
H643        H  0.12653509  0.70869376  0.30580787     0.15800
H644        H  0.15169999  0.79583400  0.25896813     0.01600
H645        H  0.05725484  0.76011020  0.26721031     0.16100
H646        H  0.11646425  0.71273787  0.21214385     0.15900
In647      In  0.21657169  0.93909414  0.45743737     1.36900
C648        C  0.24708992  0.88571503  0.44878610     0.78800
O649        O  0.19567270  0.93798937  0.50569359    -0.59600
O650        O  0.17123553  0.91612243  0.46836124    -0.50500
C651        C  0.24907153  0.98369269  0.48579384     0.71500
O652        O  0.25328529  0.95508346  0.49173049    -0.45400
C653        C  0.18393092  0.95877511  0.40696506     0.76200
O654        O  0.25494646  0.91079515  0.43480727    -0.57300
O655        O  0.17796576  0.96643541  0.43476578    -0.47400
O656        O  0.22445497  0.88818425  0.46698626    -0.53700
C657        C  0.17250101  0.92212416  0.49733279     0.86400
O658        O  0.23140026  0.98936666  0.46245915    -0.55600
O659        O  0.20852524  0.94270041  0.40419234    -0.58900
In660      In  0.07595119  0.92858993  0.31358031     1.36900
C661        C  0.08222281  0.87312000  0.28638075     0.78800
O662        O  0.12875121  0.93192647  0.31102668    -0.59600
O663        O  0.10543574  0.95451562  0.34803887    -0.50500
C664        C  0.04249882  0.97216195  0.28165291     0.71500
O665        O  0.04145650  0.94354669  0.27531211    -0.45400
C666        C  0.04150176  0.91351757  0.36301398     0.76200
O667        O  0.09289938  0.89788690  0.27394426    -0.57300
O668        O  0.07027745  0.90787794  0.36208828    -0.47400
O669        O  0.06813358  0.87689215  0.31182057    -0.53700
C670        C  0.13111335  0.94659256  0.33650578     0.86400
O671        O  0.06331919  0.97891968  0.30154450    -0.55600
O672        O  0.03059343  0.92794137  0.33920714    -0.58900
C673        C  0.26855867  0.80056663  0.41717601     0.87700
C674        C  0.26848548  0.76941788  0.43605584    -0.52500
C675        C  0.26895347  0.74383835  0.41700764     0.10600
C676        C  0.26976816  0.75175774  0.38159951     0.21600
C677        C  0.29725917  0.79900650  0.39626945    -0.53200
C678        C  0.29810870  0.77332772  0.37750992     0.10700
C679        C  0.24074591  0.79856125  0.39451225    -0.52800
C680        C  0.24152075  0.77309178  0.37590350     0.11300
H681        H  0.26813775  0.76775004  0.46163732     0.15800
H682        H  0.26980842  0.73069194  0.36668665     0.01600
H683        H  0.31469084  0.81730956  0.39564712     0.16100
H684        H  0.22206778  0.81579274  0.39315786     0.15900
In685      In  0.45682690  0.59152009  0.30297342     1.36900
C686        C  0.44822693  0.64459548  0.26984757     0.78800
O687        O  0.40503970  0.59178430  0.31229543    -0.59600
O688        O  0.43501476  0.56396760  0.34173239    -0.50500
C689        C  0.48186085  0.54300185  0.27297880     0.71500
O690        O  0.49242963  0.57035510  0.27056579    -0.45400
C691        C  0.49289827  0.61015253  0.35016330     0.76200
O692        O  0.43095918  0.62110176  0.26575949    -0.57300
O693        O  0.46495248  0.61863244  0.34685105    -0.47400
O694        O  0.47086539  0.63989110  0.28828047    -0.53700
C695        C  0.40786537  0.57410400  0.33641004     0.86400
O696        O  0.45629542  0.54128700  0.28703082    -0.55600
O697        O  0.50209307  0.59078121  0.33022734    -0.58900
In698      In  0.31177544  0.59650287  0.44373961     1.36900
C699        C  0.28493758  0.65272199  0.43873725     0.78800
O700        O  0.33156261  0.59656537  0.49314982    -0.59600
O701        O  0.36023024  0.61125623  0.45526264    -0.50500
C702        C  0.28153045  0.54627176  0.46574239     0.71500
O703        O  0.27445101  0.57363140  0.47370787    -0.45400
C704        C  0.33806700  0.58585637  0.38850567     0.76200
O705        O  0.27315683  0.62906722  0.42578820    -0.57300
O706        O  0.34815146  0.57455838  0.41434388    -0.47400
O707        O  0.30898020  0.64725263  0.45497497    -0.53700
C708        C  0.35732765  0.60765466  0.48461689     0.86400
O709        O  0.30146672  0.54505054  0.44434884    -0.55600
O710        O  0.31292021  0.60107759  0.39045419    -0.58900
C711        C  0.25898582  0.80409781  0.09216819     0.87700
C712        C  0.25669107  0.77317362  0.07385003    -0.52500
C713        C  0.25596549  0.74717381  0.09346705     0.10600
C714        C  0.25744987  0.75454639  0.12865988     0.21600
C715        C  0.23133876  0.80359608  0.11465124    -0.53200
C716        C  0.23034720  0.77752751  0.13376674     0.10700
C717        C  0.28767731  0.79999814  0.11335415    -0.52800
C718        C  0.28706361  0.77404553  0.13231369     0.11300
H719        H  0.25557365  0.77198785  0.04830350     0.15800
H720        H  0.25718833  0.73343566  0.14430726     0.01600
H721        H  0.21394732  0.82209033  0.11508357     0.16100
H722        H  0.30685520  0.81650813  0.11358565     0.15900
In723      In  0.31679111  0.94252850  0.05339986     1.36900
C724        C  0.28404327  0.88985188  0.06120263     0.78800
O725        O  0.34220110  0.94395715  0.00714931    -0.59600
O726        O  0.36134018  0.91701217  0.04517211    -0.50500
C727        C  0.28324350  0.98857257  0.02580070     0.71500
O728        O  0.28176982  0.96058909  0.01743830    -0.45400
C729        C  0.35042312  0.96116395  0.10291201     0.76200
O730        O  0.27960183  0.91352754  0.07808956    -0.57300
O731        O  0.35380810  0.97175322  0.07527514    -0.47400
O732        O  0.30431014  0.89345016  0.04037279    -0.53700
C733        C  0.36345344  0.92562888  0.01673076     0.86400
O734        O  0.29890821  0.99256069  0.05067925    -0.55600
O735        O  0.32780974  0.94253162  0.10614907    -0.58900
In736      In  0.46128435  0.93475297  0.19694534     1.36900
C737        C  0.45966762  0.87858863  0.22537427     0.78800
O738        O  0.40840454  0.93371748  0.19819851    -0.59600
O739        O  0.43010786  0.96121581  0.16284563    -0.50500
C740        C  0.49304927  0.97639574  0.23082788     0.71500
O741        O  0.49767508  0.94739974  0.23295218    -0.45400
C742        C  0.49535263  0.92376304  0.14651266     0.76200
O743        O  0.44528211  0.90190511  0.23612400    -0.57300
O744        O  0.46907601  0.91155594  0.15084875    -0.47400
O745        O  0.47537384  0.88425726  0.20114015    -0.53700
C746        C  0.40508465  0.95010548  0.17333841     0.86400
O747        O  0.46950065  0.98410604  0.21435737    -0.55600
O748        O  0.50338012  0.94318889  0.16695981    -0.58900
C749        C  0.43006002  0.79214972  0.24735812     0.87700
C750        C  0.41023496  0.79249916  0.27697122    -0.52500
C751        C  0.39021205  0.76785525  0.27979183     0.10600
C752        C  0.39183517  0.74522843  0.25182913     0.21600
C753        C  0.44666019  0.76010938  0.24818624    -0.53200
C754        C  0.42630854  0.73547729  0.25036710     0.10700
C755        C  0.40678957  0.79041740  0.22005754    -0.52800
C756        C  0.38671088  0.76593956  0.22214773     0.11300
H757        H  0.41136953  0.81142038  0.29367130     0.15800
H758        H  0.37581402  0.72499685  0.25343951     0.01600
H759        H  0.47175074  0.75718848  0.24721986     0.16100
H760        H  0.40576673  0.80774057  0.20097861     0.15900
In761      In  0.42071591  0.96293541  0.80823589     1.36900
C762        C  0.36508252  0.95083203  0.78262525     0.78800
O763        O  0.42751930  0.91061517  0.81652178    -0.59600
O764        O  0.45497735  0.94220462  0.84273118    -0.50500
C765        C  0.45754058  0.99516502  0.76944065     0.71500
O766        O  0.42879463  0.00034233  0.77140976    -0.45400
C767        C  0.40792654  0.00113252  0.85497034     0.76200
O768        O  0.38990849  0.93987939  0.77132155    -0.57300
O769        O  0.39834995  0.97333396  0.85431272    -0.47400
O770        O  0.36889618  0.96787845  0.80611818    -0.53700
C771        C  0.44738546  0.91427164  0.83832434     0.86400
O772        O  0.46678915  0.97083458  0.78402774    -0.55600
O773        O  0.42542695  0.00888358  0.83258612    -0.58900
In774      In  0.43560368  0.82001771  0.95005196     1.36900
C775        C  0.38133493  0.79016233  0.95065557     0.78800
O776        O  0.43696719  0.84551170  0.99602912    -0.59600
O777        O  0.41468188  0.86749266  0.95657754    -0.50500
C778        C  0.48420018  0.78949394  0.97617143     0.71500
O779        O  0.45651781  0.78111325  0.98036461    -0.45400
C780        C  0.44518932  0.84367409  0.89244073     0.76200
O781        O  0.40373054  0.78122815  0.93386211    -0.57300
O782        O  0.45797188  0.85419023  0.91693605    -0.47400
O783        O  0.38712214  0.81312365  0.96773369    -0.53700
C784        C  0.42121381  0.86842590  0.98556969     0.86400
O785        O  0.48721560  0.81107510  0.95586987    -0.55600
O786        O  0.42977943  0.81896462  0.89690737    -0.58900
In787      In  0.09267228  0.71792485  0.94804329     1.36900
C788        C  0.14780664  0.74670969  0.94383087     0.78800
O789        O  0.08718246  0.68856936  0.99192344    -0.59600
O790        O  0.11647006  0.67192885  0.95576452    -0.50500
C791        C  0.04685198  0.74737072  0.97794022     0.71500
O792        O  0.07466098  0.74731109  0.98769174    -0.45400
C793        C  0.07584922  0.69252247  0.89348986     0.76200
O794        O  0.12391538  0.75702502  0.92929893    -0.57300
O795        O  0.06752742  0.68203614  0.92002921    -0.47400
O796        O  0.14298007  0.72343957  0.96146971    -0.53700
C797        C  0.10607449  0.66797529  0.98323152     0.86400
O798        O  0.04333997  0.73648341  0.95073210    -0.55600
O799        O  0.09094246  0.71775352  0.89449786    -0.58900
In800      In  0.07549005  0.57224571  0.81009996     1.36900
C801        C  0.12927274  0.57829361  0.77924291     0.78800
O802        O  0.07781557  0.62436411  0.81886487    -0.59600
O803        O  0.04852888  0.59587317  0.84742842    -0.50500
C804        C  0.02652196  0.54904416  0.77850926     0.71500
O805        O  0.05336206  0.53722705  0.77730945    -0.45400
C806        C  0.09119770  0.53541589  0.85868547     0.76200
O807        O  0.10605133  0.59570187  0.77297600    -0.57300
O808        O  0.09730162  0.56413997  0.85752175    -0.47400
O809        O  0.12428408  0.55710801  0.79935529    -0.53700
C810        C  0.06000772  0.62253629  0.84241917     0.86400
O811        O  0.02553943  0.57466948  0.79252796    -0.55600
O812        O  0.07570082  0.52558799  0.83553129    -0.58900
C813        C  0.29448490  0.76874439  0.92410922     0.87700
C814        C  0.26370209  0.76755396  0.94256977    -0.52500
C815        C  0.23794333  0.76580253  0.92314602     0.10600
C816        C  0.24548142  0.76516812  0.88781522     0.21600
C817        C  0.29417621  0.73975294  0.90348530    -0.53200
C818        C  0.26849827  0.73793038  0.88458564     0.10700
C819        C  0.29058571  0.79652440  0.90108501    -0.52800
C820        C  0.26500246  0.79460960  0.88199743     0.11300
H821        H  0.26241094  0.76793903  0.96812496     0.15800
H822        H  0.22465384  0.76351594  0.87214477     0.01600
H823        H  0.31287373  0.72255838  0.90326572     0.16100
H824        H  0.30705865  0.81569597  0.89945133     0.15900
C825        C  0.21952378  0.92902138  0.75430301     0.87700
C826        C  0.21860159  0.90598423  0.78225633    -0.52500
C827        C  0.24393444  0.88683375  0.78414055     0.10600
C828        C  0.26788643  0.89243598  0.75810014     0.21600
C829        C  0.25039891  0.94683650  0.75810411    -0.53200
C830        C  0.27579873  0.92731189  0.76001767     0.10700
C831        C  0.22395671  0.90882253  0.72521484    -0.52800
C832        C  0.24932973  0.88949319  0.72706808     0.11300
H833        H  0.19962559  0.90474580  0.79896734     0.15800
H834        H  0.28844119  0.87671208  0.76051073     0.01600
H835        H  0.25199526  0.97211489  0.75938527     0.16100
H836        H  0.20834154  0.91001234  0.70489645     0.15900
C837        C  0.21749741  0.60636541  0.76196431     0.87700
C838        C  0.22057292  0.62911231  0.73385408    -0.52500
C839        C  0.24752046  0.64574558  0.73430636     0.10600
C840        C  0.26890403  0.63829665  0.76264614     0.21600
C841        C  0.24713254  0.58569491  0.76117683    -0.53200
C842        C  0.27416846  0.60282320  0.76146225     0.10700
C843        C  0.22157109  0.62653710  0.79118878    -0.52800
C844        C  0.24842793  0.64346809  0.79168237     0.11300
H845        H  0.20297148  0.63206414  0.71542091     0.15800
H846        H  0.29092336  0.65180072  0.76243306     0.01600
H847        H  0.24673817  0.56040235  0.75942388     0.16100
H848        H  0.20387478  0.62829031  0.80918778     0.15900
In849      In  0.41485914  0.57274378  0.70236429     1.36900
C850        C  0.36166925  0.57922082  0.73461423     0.78800
O851        O  0.41907594  0.62576509  0.70010057    -0.59600
O852        O  0.44276912  0.59883938  0.66637132    -0.50500
C853        C  0.46041518  0.53945675  0.73082318     0.71500
O854        O  0.43205271  0.53292474  0.73391401    -0.45400
C855        C  0.39659301  0.54034011  0.65300422     0.76200
O856        O  0.38728530  0.58981520  0.74482905    -0.57300
O857        O  0.38932884  0.56861794  0.65653650    -0.47400
O858        O  0.36362636  0.56505317  0.70906451    -0.53700
C859        C  0.43543982  0.62569183  0.67550098     0.86400
O860        O  0.46522602  0.56511894  0.71671690    -0.55600
O861        O  0.41455961  0.52900399  0.67393356    -0.58900
In862      In  0.43947306  0.70630616  0.55169200     1.36900
C863        C  0.38897640  0.74065999  0.56124226     0.78800
O864        O  0.43995191  0.67763629  0.50758893    -0.59600
O865        O  0.41041720  0.66381805  0.54501497    -0.50500
C866        C  0.48225217  0.73929356  0.52027790     0.71500
O867        O  0.45364920  0.74059501  0.51384622    -0.45400
C868        C  0.45652605  0.67498346  0.60392955     0.76200
O869        O  0.41451495  0.74614204  0.57513020    -0.57300
O870        O  0.46709041  0.66888633  0.57711631    -0.47400
O871        O  0.38982255  0.71908667  0.54154830    -0.53700
C872        C  0.41950619  0.65895928  0.51743318     0.86400
O873        O  0.48896463  0.72333003  0.54476729    -0.55600
O874        O  0.44012287  0.69951685  0.60474453    -0.58900
In875      In  0.08206705  0.96812717  0.69775887     1.36900
C876        C  0.13506227  0.96200723  0.73005344     0.78800
O877        O  0.08407099  0.91523450  0.69486188    -0.59600
O878        O  0.05490428  0.94073536  0.66271389    -0.50500
C879        C  0.03701436  0.99696079  0.72902950     0.71500
O880        O  0.06535780  0.00326045  0.73261936    -0.45400
C881        C  0.09808333  0.00453949  0.64936997     0.76200
O882        O  0.11063133  0.94785614  0.73838363    -0.57300
O883        O  0.10477173  0.97587229  0.65104845    -0.47400
O884        O  0.13202786  0.97974100  0.70630348    -0.53700
C885        C  0.06648421  0.91464824  0.67078531     0.86400
O886        O  0.03184072  0.97338772  0.71237988    -0.55600
O887        O  0.08140440  0.01419718  0.67140192    -0.58900
In888      In  0.10473087  0.81696124  0.57122618     1.36900
C889        C  0.16036243  0.78985672  0.57746052     0.78800
O890        O  0.10037463  0.84277409  0.52471182    -0.59600
O891        O  0.12528593  0.86403807  0.56205755    -0.50500
C892        C  0.06362271  0.78116003  0.54122715     0.71500
O893        O  0.09237680  0.78012194  0.53625030    -0.45400
C894        C  0.08615284  0.84271366  0.62468584     0.76200
O895        O  0.13666562  0.77888793  0.59113434    -0.57300
O896        O  0.07558064  0.85059916  0.59784875    -0.47400
O897        O  0.15546728  0.81396186  0.56080329    -0.53700
C898        C  0.11687214  0.86530995  0.53350796     0.86400
O899        O  0.05603635  0.79802082  0.56402252    -0.55600
O900        O  0.10431182  0.81941136  0.62468558    -0.58900
C901        C  0.30627296  0.76456812  0.59783916     0.87700
C902        C  0.27552812  0.76552323  0.57870672    -0.52500
C903        C  0.24983781  0.76683611  0.59748346     0.10600
C904        C  0.25718782  0.76720685  0.63283052     0.21600
C905        C  0.30527551  0.79351962  0.61862624    -0.53200
C906        C  0.27925987  0.79504788  0.63680756     0.10700
C907        C  0.30309509  0.73663236  0.62073531    -0.52800
C908        C  0.27739727  0.73807228  0.63923460     0.11300
H909        H  0.27424432  0.76583836  0.55310474     0.15800
H910        H  0.23606156  0.76809017  0.64765381     0.01600
H911        H  0.32313882  0.81141352  0.61844027     0.16100
H912        H  0.32003913  0.71772509  0.62257974     0.15900
C913        C  0.21822719  0.77065117  0.58620044    -0.12000
C914        C  0.19121646  0.77715030  0.58132029    -0.13600
C915        C  0.06199369  0.88702868  0.65092454    -0.15200
C916        C  0.08050285  0.86160212  0.65299086    -0.30400
H917        H  0.04718068  0.89043580  0.63018267     0.13800
H918        H  0.09571071  0.85798083  0.67339007     0.14400
C919        C  0.36014617  0.75549301  0.56923012    -0.12000
C920        C  0.33496463  0.76228610  0.57948233    -0.13600
C921        C  0.44275524  0.65430792  0.65686967    -0.15200
C922        C  0.46018590  0.65266299  0.63072672    -0.30400
H923        H  0.42967639  0.67546074  0.66164681     0.13800
H924        H  0.47300719  0.63128312  0.62614734     0.14400
C925        C  0.25103348  0.70099851  0.71594801    -0.12100
C926        C  0.25519430  0.66918750  0.70998721     0.10000
C927        C  0.26689102  0.65983778  0.68092722    -0.12100
C928        C  0.27444946  0.68224653  0.65790716    -0.12100
C929        C  0.27000528  0.71421060  0.66363925     0.10000
C930        C  0.25821353  0.72340008  0.69282917    -0.12100
H931        H  0.24202228  0.70842647  0.73838030     0.14000
H932        H  0.27024043  0.63525548  0.67616927     0.14000
H933        H  0.28327398  0.67460848  0.63547949     0.14000
H934        H  0.25496491  0.74791285  0.69793354     0.14000
C935        C  0.30526183  0.59016830  0.75686855    -0.12000
C936        C  0.33178450  0.58409959  0.74936074    -0.13600
C937        C  0.29587130  0.83521305  0.67577150    -0.12100
C938        C  0.27223823  0.82113521  0.65797590     0.10000
C939        C  0.24133685  0.83109489  0.66148915    -0.12100
C940        C  0.23396127  0.85375375  0.68340870    -0.12100
C941        C  0.25741496  0.86709806  0.70214039     0.10000
C942        C  0.28851364  0.85803202  0.69766317    -0.12100
H943        H  0.31989698  0.82792473  0.67346847     0.14000
H944        H  0.22273343  0.82112975  0.64751979     0.14000
H945        H  0.20973336  0.85997879  0.68631474     0.14000
H946        H  0.30721366  0.86840369  0.71113733     0.14000
C947        C  0.19089623  0.94769264  0.75140816    -0.12000
C948        C  0.16498028  0.95652455  0.74449262    -0.13600
C949        C  0.25213455  0.80889844  0.82615714    -0.12100
C950        C  0.25789670  0.81818773  0.85722547     0.10000
C951        C  0.25826743  0.85012045  0.86426438    -0.12100
C952        C  0.25297388  0.87251758  0.84045594    -0.12100
C953        C  0.24812018  0.86319617  0.80930369     0.10000
C954        C  0.24778233  0.83135569  0.80216847    -0.12100
H955        H  0.25187465  0.78436735  0.82033366     0.14000
H956        H  0.26260980  0.85765294  0.88816515     0.14000
H957        H  0.25333009  0.89710722  0.84614944     0.14000
H958        H  0.24403791  0.82396910  0.77811578     0.14000
C959        C  0.24468912  0.66231217  0.84739284    -0.12100
C960        C  0.25532239  0.66673074  0.81632494     0.10000
C961        C  0.27123461  0.69438820  0.80847031    -0.12100
C962        C  0.27579014  0.71740494  0.83093360    -0.12100
C963        C  0.26445490  0.71316237  0.86149679     0.10000
C964        C  0.24917877  0.68545720  0.86981284    -0.12100
H965        H  0.23281249  0.64105584  0.85435679     0.14000
H966        H  0.27937463  0.69879062  0.78476533     0.14000
H967        H  0.28785746  0.73869933  0.82439490     0.14000
H968        H  0.24056622  0.68189866  0.89352478     0.14000
C969        C  0.16009697  0.58354004  0.76699410    -0.12000
C970        C  0.18696060  0.59061777  0.76229878    -0.13600
C971        C  0.17890720  0.75854812  0.93930835    -0.12000
C972        C  0.20609659  0.76350926  0.93392949    -0.13600
C973        C  0.07105079  0.67481766  0.86419824    -0.15200
C974        C  0.05506010  0.64788967  0.86494364    -0.30400
H975        H  0.08459759  0.68122717  0.84361000     0.13800
H976        H  0.04162285  0.64186673  0.88574755     0.14400
C977        C  0.32381566  0.77133262  0.94200259    -0.12000
C978        C  0.35052251  0.77730037  0.94863823    -0.13600
C979        C  0.30749483  0.93773037  0.76470711    -0.12000
C980        C  0.33430831  0.94392034  0.77085033    -0.13600
C981        C  0.45888548  0.88911380  0.85971558    -0.15200
C982        C  0.44500541  0.86108671  0.86198337    -0.30400
H983        H  0.47492026  0.89615799  0.87826197     0.13800
H984        H  0.42858779  0.85392934  0.84385657     0.14400
C985        C  0.45657284  0.84721261  0.23791743    -0.12000
C986        C  0.44901916  0.82061412  0.24415506    -0.13600
C987        C  0.38697912  0.91285466  0.99560541    -0.15200
C988        C  0.40816908  0.89201683  0.00642829    -0.30400
H989        H  0.38349096  0.91656421  0.97038334     0.13800
H990        H  0.41156859  0.88837054  0.03167280     0.14400
C991        C  0.37507267  0.95291109  0.15583740    -0.15200
C992        C  0.37358003  0.96819323  0.12784543    -0.30400
H993        H  0.35592264  0.93809361  0.16322867     0.13800
H994        H  0.39307135  0.98268967  0.12066451     0.14400
C995        C  0.30677664  0.75754095  0.18553213    -0.12100
C996        C  0.31282404  0.76625573  0.15422082     0.10000
C997        C  0.34366523  0.77039224  0.14453686    -0.12100
C998        C  0.36799008  0.76800821  0.16638266    -0.12100
C999        C  0.36184015  0.76168578  0.19830369     0.10000
C1000       C  0.33119963  0.75535128  0.20748598    -0.12100
H1001       H  0.28307401  0.75443698  0.19344139     0.14000
H1002       H  0.34882967  0.77655196  0.12026404     0.14000
H1003       H  0.39151368  0.77243916  0.15857721     0.14000
H1004       H  0.32573836  0.75089059  0.23175159     0.14000
C1005       C  0.26141734  0.83378949  0.07411153    -0.12000
C1006       C  0.26904533  0.86005078  0.06638851    -0.13600
C1007       C  0.38053174  0.61897958  0.50723404    -0.15200
C1008       C  0.40513904  0.63549107  0.49722087    -0.30400
H1009       H  0.37427048  0.61879403  0.53200566     0.13800
H1010       H  0.41126250  0.63588522  0.47241422     0.14400
C1011       C  0.44154108  0.67549555  0.25725209    -0.12000
C1012       C  0.43574208  0.70289169  0.25229609    -0.13600
C1013       C  0.38278558  0.56753808  0.35887910    -0.15200
C1014       C  0.35598132  0.58380693  0.35908720    -0.30400
H1015       H  0.38885283  0.55243382  0.37893538     0.13800
H1016       H  0.34968437  0.59924979  0.33938881     0.14400
C1017       C  0.35304405  0.77989501  0.35928995    -0.12100
C1018       C  0.32295837  0.76820244  0.35414040     0.10000
C1019       C  0.31646727  0.75280737  0.32588024    -0.12100
C1020       C  0.33901867  0.75077673  0.30255346    -0.12100
C1021       C  0.36817361  0.76496222  0.30651512     0.10000
C1022       C  0.37534890  0.77836681  0.33574134    -0.12100
H1023       H  0.35928610  0.79072801  0.38133427     0.14000
H1024       H  0.29363736  0.74335313  0.32105501     0.14000
H1025       H  0.33297764  0.73903033  0.28121102     0.14000
H1026       H  0.39809935  0.78814151  0.34037896     0.14000
C1027       C  0.26974565  0.71173295  0.42823614    -0.12000
C1028       C  0.27375089  0.68422001  0.43393377    -0.13600
C1029       C  0.15063077  0.90903502  0.52023020    -0.15200
C1030       C  0.12845733  0.88901311  0.51125866    -0.30400
H1031       H  0.15627272  0.91168109  0.54509158     0.13800
H1032       H  0.12305037  0.88610963  0.48638105     0.14400
C1033       C  0.26095723  0.85577892  0.44308795    -0.12000
C1034       C  0.26705926  0.82958446  0.43500763    -0.13600
C1035       C  0.16102522  0.95090336  0.35362464    -0.15200
C1036       C  0.16145162  0.96593665  0.38120919    -0.30400
H1037       H  0.18096593  0.93701292  0.34672028     0.13800
H1038       H  0.14112018  0.97946488  0.38777594     0.14400
C1039       C  0.17012899  0.79140245  0.19666700    -0.12100
C1040       C  0.15993750  0.76086667  0.20344850     0.10000
C1041       C  0.17236868  0.73598354  0.18626314    -0.12100
C1042       C  0.19491245  0.74148633  0.16336310    -0.12100
C1043       C  0.20557315  0.77192890  0.15720538     0.10000
C1044       C  0.19277026  0.79686257  0.17388002    -0.12100
H1045       H  0.16067490  0.81121977  0.20889639     0.14000
H1046       H  0.16542671  0.71209307  0.19103651     0.14000
H1047       H  0.20398865  0.72186457  0.15049512     0.14000
H1048       H  0.20068713  0.82057114  0.16977628     0.14000
C1049       C  0.18741793  0.75786905  0.36348688    -0.12100
C1050       C  0.21689490  0.76670955  0.35294029     0.10000
C1051       C  0.22239087  0.77071368  0.32064746    -0.12100
C1052       C  0.19826143  0.76624155  0.29892124    -0.12100
C1053       C  0.16873375  0.75716236  0.30942287     0.10000
C1054       C  0.16348725  0.75279589  0.34178997    -0.12100
H1055       H  0.18300784  0.75494971  0.38847837     0.14000
H1056       H  0.24509229  0.77785984  0.31239195     0.14000
H1057       H  0.20268505  0.76953820  0.27397461     0.14000
H1058       H  0.14073794  0.74607344  0.35026352     0.14000
C1059       C  0.08663278  0.84239148  0.27374789    -0.12000
C1060       C  0.09169411  0.81547365  0.26715771    -0.13600
C1061       C  0.07230872  0.67195004  0.25841704    -0.12000
C1062       C  0.08116708  0.69827830  0.26250468    -0.13600
C1063       C  0.14352003  0.62751693  0.99786649    -0.15200
C1064       C  0.11780868  0.64361230  0.00494685    -0.30400
H1065       H  0.15240745  0.62807332  0.97396015     0.13800
H1066       H  0.10932451  0.64364560  0.02900609     0.14400
C1067       C  0.25259103  0.71511052  0.08342897    -0.12000
C1068       C  0.24656052  0.68777205  0.07963383    -0.13600
C1069       C  0.14969959  0.58359007  0.16997619    -0.15200
C1070       C  0.15014081  0.57172200  0.14091180    -0.30400
H1071       H  0.16870118  0.59803889  0.17832782     0.13800
H1072       H  0.13063751  0.55767153  0.13295328     0.14400
C1073       C  0.24578048  0.52203761  0.99767455    -0.15200
C1074       C  0.23759267  0.52155603  0.02817350    -0.30400
H1075       H  0.25657408  0.54292253  0.98783828     0.13800
H1076       H  0.22718127  0.50061478  0.03830618     0.14400
C1077       C  0.10415830  0.51441627  0.88316386    -0.15200
C1078       C  0.12439804  0.52522770  0.90463483    -0.30400
H1079       H  0.10205362  0.48943270  0.87946134     0.13800
H1080       H  0.12660534  0.55022276  0.90823850     0.14400
C1081       C  0.23823290  0.46661243  0.84209369    -0.12000
C1082       C  0.24376016  0.45780278  0.81584760    -0.13600
C1083       C  0.13544357  0.37976670  0.95700225    -0.15200
C1084       C  0.16319256  0.38261652  0.94291642    -0.30400
H1085       H  0.12739893  0.39846554  0.97195236     0.13800
H1086       H  0.17132938  0.36448259  0.92735904     0.14400
C1087       C  0.16804303  0.33556815  0.72286307    -0.12100
C1088       C  0.15313018  0.32209245  0.74906966     0.10000
C1089       C  0.16035380  0.33265459  0.77934864    -0.12100
C1090       C  0.18212324  0.35623681  0.78346585    -0.12100
C1091       C  0.19689281  0.37002041  0.75733012     0.10000
C1092       C  0.18974830  0.35938726  0.72696345    -0.12100
H1093       H  0.16312205  0.32754978  0.69925551     0.14000
H1094       H  0.14890160  0.32300298  0.79992740     0.14000
H1095       H  0.18756503  0.36338078  0.80724492     0.14000
H1096       H  0.20049592  0.36972104  0.70632403     0.14000
C1097       C  0.08050438  0.28181214  0.83912972    -0.12000
C1098       C  0.08412369  0.27535533  0.81167762    -0.13600
C1099       C  0.25672767  0.51901622  0.51045613    -0.15200
C1100       C  0.27118180  0.51769083  0.48256418    -0.30400
H1101       H  0.24572720  0.54072586  0.51738845     0.13800
H1102       H  0.28239889  0.49599575  0.47590699     0.14400
C1103       C  0.35692522  0.53081384  0.61311281    -0.15200
C1104       C  0.38267997  0.52103147  0.62849711    -0.30400
H1105       H  0.34893374  0.55483513  0.61517457     0.13800
H1106       H  0.38995446  0.49669799  0.62754901     0.14400
C1107       C  0.25356833  0.44994219  0.67071607    -0.12000
C1108       C  0.24851829  0.44432677  0.69816952    -0.13600
C1109       C  0.33637702  0.38307050  0.56633043    -0.15200
C1110       C  0.36271486  0.38358786  0.54956699    -0.30400
H1111       H  0.33102730  0.36315728  0.58155655     0.13800
H1112       H  0.36743029  0.40377829  0.53444339     0.14400
C1113       C  0.35546967  0.35820117  0.76232869    -0.12100
C1114       C  0.34744909  0.32766057  0.75414756     0.10000
C1115       C  0.31609085  0.31982399  0.74982556    -0.12100
C1116       C  0.29294236  0.34257368  0.75302380    -0.12100
C1117       C  0.30091514  0.37328857  0.76096702     0.10000
C1118       C  0.33231607  0.38082820  0.76605675    -0.12100
H1119       H  0.37968439  0.36458329  0.76533538     0.14000
H1120       H  0.30963828  0.29645594  0.74293626     0.14000
H1121       H  0.26882075  0.33618046  0.74932634     0.14000
H1122       H  0.33896324  0.40440701  0.77203112     0.14000
C1123       C  0.43570519  0.28983339  0.65906103    -0.12000
C1124       C  0.42916576  0.28439151  0.68626694    -0.13600
C1125       C  0.28359329  0.04320145  0.00715436    -0.15200
C1126       C  0.27143406  0.01437020  0.00522128    -0.30400
H1127       H  0.29655112  0.04944541  0.02826865     0.13800
H1128       H  0.25958474  0.00769322  0.98360316     0.14400
C1129       C  0.39717504  0.02382331  0.87803229    -0.15200
C1130       C  0.37390924  0.01672765  0.89766848    -0.30400
H1131       H  0.40465375  0.04792772  0.87503451     0.13800
H1132       H  0.36582100  0.99275339  0.89988699     0.14400
C1133       C  0.43617294  0.26905326  0.83236007    -0.12000
C1134       C  0.42833435  0.27570953  0.80555129    -0.13600
C1135       C  0.38256417  0.17328040  0.95174887    -0.15200
C1136       C  0.35524021  0.17156275  0.93619023    -0.30400
H1137       H  0.38945218  0.15419371  0.96765780     0.13800
H1138       H  0.34783930  0.19034292  0.92017775     0.14400
C1139       C  0.17180203  0.16300319  0.74830637    -0.12100
C1140       C  0.20253699  0.17221868  0.75470515     0.10000
C1141       C  0.20834883  0.20316709  0.76324212    -0.12100
C1142       C  0.18416582  0.22510737  0.76318878    -0.12100
C1143       C  0.15382859  0.21626829  0.75469259     0.10000
C1144       C  0.14766743  0.18482885  0.74828774    -0.12100
H1145       H  0.16659132  0.13906658  0.74229955     0.14000
H1146       H  0.23171217  0.21092854  0.76802788     0.14000
H1147       H  0.18958567  0.24928802  0.76791950     0.14000
H1148       H  0.12432548  0.17730954  0.74232370     0.14000
C1149       C  0.32697782  0.22656358  0.76556929    -0.12100
C1150       C  0.35577950  0.22170452  0.75116577     0.10000
C1151       C  0.36294783  0.19192796  0.73979737    -0.12100
C1152       C  0.34069952  0.16832167  0.74035030    -0.12100
C1153       C  0.31081538  0.17404329  0.75223020     0.10000
C1154       C  0.30476371  0.20287236  0.76622879    -0.12100
H1155       H  0.32084468  0.24913416  0.77483261     0.14000
H1156       H  0.38544603  0.18713194  0.72963262     0.14000
H1157       H  0.34668674  0.14585285  0.73068964     0.14000
H1158       H  0.28245636  0.20786235  0.77634805     0.14000
C1159       C  0.26216021  0.10110541  0.81156718    -0.12000
C1160       C  0.26886497  0.09604629  0.83900485    -0.13600
C1161       C  0.24860621  0.03722845  0.50525982    -0.15200
C1162       C  0.25962260  0.00784413  0.50782007    -0.30400
H1163       H  0.23988502  0.04595057  0.48259003     0.13800
H1164       H  0.26871622  0.99940560  0.53045784     0.14400
C1165       C  0.13404098  0.01606870  0.60661590    -0.15200
C1166       C  0.11165226  0.02589353  0.62594037    -0.30400
H1167       H  0.13844972  0.99122840  0.60388499     0.13800
H1168       H  0.10744663  0.05076181  0.62875617     0.14400
C1169       C  0.24922511  0.08515391  0.66549291    -0.12000
C1170       C  0.25525720  0.09211360  0.69237066    -0.13600
C1171       C  0.06822560  0.26598336  0.69284479    -0.12000
C1172       C  0.06009228  0.25998932  0.66618316    -0.13600
C1173       C  0.14323495  0.17603766  0.57127764    -0.15200
C1174       C  0.14626320  0.14972682  0.55472922    -0.30400
H1175       H  0.16144871  0.18304606  0.58762299     0.13800
H1176       H  0.12783040  0.14329965  0.53833899     0.14400
C1177       C  0.50892584  0.01914870  0.76360994    -0.15200
C1178       C  0.47863009  0.01861707  0.75540547    -0.30400
H1179       H  0.51963847  0.99840464  0.77430129     0.13800
H1180       H  0.46778838  0.03967073  0.74553060     0.14400
C1181       C  0.50382668  0.14637210  0.88659333    -0.15200
C1182       C  0.49161522  0.12779492  0.86459576    -0.30400
H1183       H  0.52880046  0.14642227  0.89101287     0.13800
H1184       H  0.46666771  0.12782501  0.86002971     0.14400
C1185       C  0.54889851  0.18680579  0.74581451    -0.12000
C1186       C  0.55734159  0.21311065  0.73976146    -0.13600
C1187       C  0.64019812  0.07559149  0.85563752    -0.15200
C1188       C  0.63609320  0.09330045  0.82942180    -0.30400
H1189       H  0.62267254  0.05837100  0.86189925     0.13800
H1190       H  0.65315697  0.11084066  0.82282873     0.14400
C1191       C  0.48542336  0.51663658  0.73889688    -0.15200
C1192       C  0.51441065  0.52043554  0.72773451    -0.30400
H1193       H  0.47818122  0.49366043  0.74726674     0.13800
H1194       H  0.52125712  0.54322286  0.71849689     0.14400
C1195       C  0.48947724  0.42224559  0.62266322    -0.15200
C1196       C  0.49733946  0.40509280  0.59781228    -0.30400
H1197       H  0.46557683  0.42268407  0.63080497     0.13800
H1198       H  0.52135118  0.40427538  0.59004307     0.14400
C1199       C  0.57058670  0.35741702  0.72503224    -0.12000
C1200       C  0.57487750  0.32991535  0.73078228    -0.13600
C1201       C  0.66245282  0.45272103  0.63641431    -0.15200
C1202       C  0.63495420  0.46777670  0.63384049    -0.30400
H1203       H  0.66789348  0.43870977  0.65739887     0.13800
H1204       H  0.62955053  0.48095397  0.61228964     0.14400
C1205       C  0.63788412  0.25406393  0.65252786    -0.12100
C1206       C  0.64410884  0.26430026  0.68322917     0.10000
C1207       C  0.67454174  0.27289776  0.69157629    -0.12100
C1208       C  0.69863619  0.26993337  0.66999275    -0.12100
C1209       C  0.69261224  0.25835783  0.63975947     0.10000
C1210       C  0.66192580  0.25110585  0.63099012    -0.12100
H1211       H  0.61448716  0.24781582  0.64534582     0.14000
H1212       H  0.68004290  0.28038901  0.71524513     0.14000
H1213       H  0.72214607  0.27534885  0.67748954     0.14000
H1214       H  0.65655537  0.24282048  0.60757588     0.14000
C1215       C  0.74866040  0.31539875  0.57077208    -0.12000
C1216       C  0.74430631  0.34301929  0.56589728    -0.13600
C1217       C  0.67869041  0.30374305  0.81993219    -0.12100
C1218       C  0.69246150  0.27749756  0.83512051     0.10000
C1219       C  0.68237942  0.24754504  0.82685233    -0.12100
C1220       C  0.65924127  0.24382784  0.80392362    -0.12100
C1221       C  0.64540873  0.26998523  0.78884726     0.10000
C1222       C  0.65540410  0.29999813  0.79698464    -0.12100
H1223       H  0.68613139  0.32718096  0.82542982     0.14000
H1224       H  0.69194778  0.22682834  0.83839876     0.14000
H1225       H  0.65238506  0.22035398  0.79782143     0.14000
H1226       H  0.64498927  0.32058642  0.78591879     0.14000
C1227       C  0.73474348  0.18819590  0.91672385    -0.12000
C1228       C  0.73895133  0.21575166  0.91128623    -0.13600
C1229       C  0.85480758  0.26616996  0.83110370    -0.12100
C1230       C  0.84852146  0.25931748  0.79946197     0.10000
C1231       C  0.81773844  0.25351523  0.78977545    -0.12100
C1232       C  0.79333686  0.25690512  0.81094184    -0.12100
C1233       C  0.79953613  0.26618923  0.84190743     0.10000
C1234       C  0.83048974  0.26959010  0.85217226    -0.12100
H1235       H  0.87843423  0.27021905  0.83918050     0.14000
H1236       H  0.81228790  0.24853621  0.76538339     0.14000
H1237       H  0.76959853  0.25424536  0.80256893     0.14000
H1238       H  0.83580482  0.27596916  0.87624089     0.14000
C1239       C  0.82882668  0.28959276  0.68123000    -0.12100
C1240       C  0.84442980  0.26350575  0.69451169     0.10000
C1241       C  0.83666326  0.23352198  0.68435188    -0.12100
C1242       C  0.81385219  0.22961112  0.66123129    -0.12100
C1243       C  0.79859608  0.25566680  0.64739154     0.10000
C1244       C  0.80619146  0.28571239  0.65776770    -0.12100
H1245       H  0.83407279  0.31299043  0.68896784     0.14000
H1246       H  0.84857966  0.21300262  0.69380999     0.14000
H1247       H  0.80816238  0.20605562  0.65438003     0.14000
H1248       H  0.79521601  0.30632200  0.64740028     0.14000
C1249       C  0.75010168  0.19780345  0.55936175    -0.12000
C1250       C  0.75561570  0.17168397  0.55048819    -0.13600
C1251       C  0.01245279  0.01856953  0.73937854    -0.15200
C1252       C  0.98294964  0.01570513  0.72906211    -0.30400
H1253       H  0.02025102  0.04094300  0.74821984     0.13800
H1254       H  0.97498298  0.99334928  0.72034527     0.14400
C1255       C  0.00517486  0.12313936  0.62507381    -0.15200
C1256       C  0.99699504  0.14408564  0.60253712    -0.30400
H1257       H  0.02935373  0.12086436  0.63262349     0.13800
H1258       H  0.97272087  0.14691388  0.59550689     0.14400
C1259       C  0.92231619  0.17491906  0.73015235    -0.12000
C1260       C  0.91793205  0.20177588  0.73755971    -0.13600
C1261       C  0.86833800  0.06031165  0.62875041    -0.15200
C1262       C  0.83957099  0.07274176  0.62745379    -0.30400
H1263       H  0.87656946  0.04687922  0.60895255     0.13800
H1264       H  0.83102256  0.08652798  0.64683109     0.14400
C1265       C  0.75029941  0.33342259  0.92043144    -0.12000
C1266       C  0.75942184  0.35871143  0.92881431    -0.13600
C1267       C  0.99940726  0.50394550  0.75571412    -0.15200
C1268       C  0.99796299  0.53227942  0.76887487    -0.30400
H1269       H  0.02098202  0.49652696  0.74492632     0.13800
H1270       H  0.97631951  0.53993174  0.77935601     0.14400
C1271       C  0.00356061  0.38894561  0.88925694    -0.15200
C1272       C  0.01254964  0.40656939  0.86454925    -0.30400
H1273       H  0.97898233  0.38585850  0.89419126     0.13800
H1274       H  0.03710285  0.40888978  0.85908365     0.14400
C1275       C  0.93183209  0.31900689  0.74728478    -0.12000
C1276       C  0.94035715  0.34528567  0.75274370    -0.13600
C1277       C  0.86626730  0.44554636  0.83888696    -0.15200
C1278       C  0.86624717  0.46110658  0.86618626    -0.30400
H1279       H  0.84682115  0.43060981  0.83274511     0.13800
H1280       H  0.88619333  0.47550088  0.87210487     0.14400
C1281       C  0.01474044  0.27385235  0.99135757    -0.15200
C1282       C  0.01484373  0.28369396  0.02128908    -0.30400
H1283       H  0.99394950  0.26288188  0.98189958     0.13800
H1284       H  0.03555439  0.29483820  0.03070736     0.14400
C1285       C  0.90360587  0.38576476  0.99626424    -0.15200
C1286       C  0.88039170  0.40449481  0.00542829    -0.30400
H1287       H  0.90820114  0.38280263  0.97134001     0.13800
H1288       H  0.87557928  0.40714267  0.03035510     0.14400
C1289       C  0.99660850  0.50668598  0.25282348    -0.15200
C1290       C  0.02641143  0.50594124  0.24363645    -0.30400
H1291       H  0.98781920  0.52738014  0.26434868     0.13800
H1292       H  0.03510920  0.48552982  0.23156442     0.14400
C1293       C  0.84461272  0.45102595  0.23565560    -0.12000
C1294       C  0.81825335  0.44277669  0.24070223    -0.13600
C1295       C  0.95695377  0.38474267  0.14770832    -0.15200
C1296       C  0.93885607  0.35942876  0.14434801    -0.30400
H1297       H  0.97496956  0.38944894  0.13048188     0.13800
H1298       H  0.92070351  0.35434022  0.16129403     0.14400
C1299       C  0.76468388  0.34494336  0.13474998    -0.12100
C1300       C  0.75941903  0.31365743  0.14357104     0.10000
C1301       C  0.75088800  0.30632397  0.17469137    -0.12100
C1302       C  0.74970156  0.32979266  0.19717910    -0.12100
C1303       C  0.75705215  0.36074947  0.18869694     0.10000
C1304       C  0.76351204  0.36828366  0.15712000    -0.12100
H1305       H  0.77070328  0.35121832  0.11072211     0.14000
H1306       H  0.74701949  0.28229035  0.18206869     0.14000
H1307       H  0.74499633  0.32341698  0.22149750     0.14000
H1308       H  0.76874907  0.39211083  0.14997057     0.14000
C1309       C  0.85035375  0.26884901  0.05722454    -0.12000
C1310       C  0.82374527  0.26249678  0.06350615    -0.13600
C1311       C  0.48334253  0.29210561  0.49590975    -0.15200
C1312       C  0.51219260  0.28010946  0.49885524    -0.30400
H1313       H  0.47585832  0.30243180  0.47345681     0.13800
H1314       H  0.51956089  0.26957243  0.52124913     0.14400
C1315       C  0.61450918  0.38992033  0.50361047    -0.15200
C1316       C  0.63699364  0.40912022  0.49335883    -0.30400
H1317       H  0.61016064  0.38729923  0.52872467     0.13800
H1318       H  0.64159361  0.41162931  0.46828570     0.14400
C1319       C  0.53019390  0.51695576  0.25742550    -0.15200
C1320       C  0.49988488  0.51474383  0.26473091    -0.30400
H1321       H  0.53946799  0.53962354  0.25047666     0.13800
H1322       H  0.49061775  0.49232152  0.27248217     0.14400
C1323       C  0.70127899  0.43166784  0.24937247    -0.12000
C1324       C  0.67477544  0.43795367  0.25648051    -0.13600
C1325       C  0.55815377  0.38793154  0.35856130    -0.15200
C1326       C  0.57115725  0.35933628  0.36056644    -0.30400
H1327       H  0.54391395  0.39604591  0.37783335     0.13800
H1328       H  0.58575351  0.35105880  0.34166608     0.14400
C1329       C  0.73023842  0.35029635  0.30564730    -0.12100
C1330       C  0.76039469  0.35766350  0.29569977     0.10000
C1331       C  0.78601187  0.34274401  0.31044069    -0.12100
C1332       C  0.78155426  0.32120503  0.33500126    -0.12100
C1333       C  0.75139786  0.31387219  0.34502471     0.10000
C1334       C  0.72575805  0.32849426  0.32997100    -0.12100
H1335       H  0.71005869  0.36175121  0.29509208     0.14000
H1336       H  0.80953952  0.34763156  0.30298431     0.14000
H1337       H  0.80181907  0.31072928  0.34638209     0.14000
H1338       H  0.70217339  0.32294719  0.33674339     0.14000
C1339       C  0.69311186  0.26537629  0.43344669    -0.12000
C1340       C  0.66724399  0.27160072  0.44218542    -0.13600
C1341       C  0.01835089  0.99470151  0.27020724    -0.15200
C1342       C  0.01732202  0.02409252  0.28099128    -0.30400
H1343       H  0.99799214  0.98512285  0.25848462     0.13800
H1344       H  0.03769767  0.03338379  0.29293044     0.14400
C1345       C  0.98389008  0.25790318  0.50002090    -0.15200
C1346       C  0.01414712  0.24983151  0.49879849    -0.30400
H1347       H  0.97455406  0.26610941  0.52212301     0.13800
H1348       H  0.02329611  0.24043348  0.47711817     0.14400
C1349       C  0.89114002  0.13524064  0.49544516    -0.15200
C1350       C  0.86886415  0.11707546  0.48320614    -0.30400
H1351       H  0.89536675  0.13538274  0.52076667     0.13800
H1352       H  0.86422653  0.11748953  0.45794472     0.14400
C1353       C  0.83697248  0.25469188  0.42657428    -0.12000
C1354       C  0.80986598  0.26068774  0.42112219    -0.13600
C1355       C  0.95558218  0.15830461  0.37182994    -0.15200
C1356       C  0.93880686  0.15263034  0.34561820    -0.30400
H1357       H  0.97368266  0.14179567  0.37916794     0.13800
H1358       H  0.92057603  0.16881325  0.33791535     0.14400
C1359       C  0.74237490  0.17246678  0.18512800    -0.12100
C1360       C  0.77040534  0.16390394  0.20041180     0.10000
C1361       C  0.79791321  0.17950193  0.19243386    -0.12100
C1362       C  0.79781944  0.20219681  0.16860611    -0.12100
C1363       C  0.77022886  0.20974143  0.15209026     0.10000
C1364       C  0.74229333  0.19531760  0.16099742    -0.12100
H1365       H  0.72084573  0.16081721  0.19112115     0.14000
H1366       H  0.81961305  0.17409926  0.20464564     0.14000
H1367       H  0.81947997  0.21379120  0.16300309     0.14000
H1368       H  0.72072120  0.20093175  0.14865557     0.14000
C1369       C  0.73151119  0.17134796  0.31317929    -0.12100
C1370       C  0.76197307  0.16271496  0.30538675     0.10000
C1371       C  0.78717192  0.17730853  0.32038298    -0.12100
C1372       C  0.78204225  0.19995055  0.34293863    -0.12100
C1373       C  0.75162383  0.20867370  0.35078317     0.10000
C1374       C  0.72635479  0.19412499  0.33576064    -0.12100
H1375       H  0.71169533  0.16027914  0.30209339     0.14000
H1376       H  0.81092518  0.17146161  0.31446392     0.14000
H1377       H  0.80198917  0.21036608  0.35441664     0.14000
H1378       H  0.70263726  0.20071279  0.34102053     0.14000
C1379       C  0.82280280  0.07649358  0.25881074    -0.12000
C1380       C  0.84906973  0.06771087  0.26500542    -0.13600
C1381       C  0.51272092  0.25506874  0.01113480    -0.15200
C1382       C  0.51484167  0.26451083  0.98079313    -0.30400
H1383       H  0.49061606  0.24632834  0.01975969     0.13800
H1384       H  0.53728176  0.27182828  0.97173600     0.14400
C1385       C  0.62691194  0.12846674  0.99016125    -0.15200
C1386       C  0.61120794  0.15487523  0.98314040    -0.30400
H1387       H  0.62809652  0.11959886  0.01433361     0.13800
H1388       H  0.61104775  0.16435694  0.95917349     0.14400
C1389       C  0.70657899  0.25336556  0.07322662    -0.12000
C1390       C  0.67931651  0.24904706  0.06744766    -0.13600
C1391       C  0.51544462  0.02928142  0.23451259    -0.15200
C1392       C  0.51638700  0.99877339  0.24268060    -0.30400
H1393       H  0.49375756  0.03958957  0.22583204     0.13800
H1394       H  0.53815816  0.98869981  0.25145816     0.14400
C1395       C  0.70570900  0.09230915  0.24714725    -0.12000
C1396       C  0.67853251  0.08831625  0.24045433    -0.13600
C1397       C  0.57564825  0.17235169  0.13902137    -0.15200
C1398       C  0.56342334  0.14352814  0.13944109    -0.30400
H1399       H  0.58876230  0.18063123  0.15924126     0.13800
H1400       H  0.55052033  0.13559306  0.11890285     0.14400
C1401       C  0.77602207  0.50902589  0.99420148    -0.15200
C1402       C  0.78961673  0.53723838  0.99254819    -0.30400
H1403       H  0.76468111  0.50169348  0.01587942     0.13800
H1404       H  0.80148545  0.54431749  0.97109012     0.14400
C1405       C  0.89482225  0.51392332  0.10076063    -0.15200
C1406       C  0.91404473  0.52263169  0.12410631    -0.30400
H1407       H  0.89048448  0.48928019  0.09676913     0.13800
H1408       H  0.91803700  0.54727411  0.12841379     0.14400
C1409       C  0.78324644  0.57556751  0.15964304    -0.12000
C1410       C  0.77807344  0.58263007  0.18652479    -0.13600
C1411       C  0.02412182  0.75867528  0.02952872    -0.15200
C1412       C  0.02004680  0.75470016  0.99831753    -0.30400
H1413       H  0.04738000  0.76324173  0.03862877     0.13800
H1414       H  0.99699605  0.74931280  0.98917726     0.14400
C1415       C  0.01549904  0.63403466  0.11964228    -0.15200
C1416       C  0.00447074  0.61601429  0.14314684    -0.30400
H1417       H  0.04021002  0.63390203  0.11439199     0.13800
H1418       H  0.97986292  0.61651281  0.14882074     0.14400
C1419       C  0.89229085  0.66643642  0.05412578    -0.15200
C1420       C  0.86562349  0.66220990  0.06981064    -0.30400
H1421       H  0.89862956  0.64998266  0.03600979     0.13800
H1422       H  0.85892666  0.67833433  0.08806830     0.14400
C1423       C  0.74851164  0.52605499  0.50157342    -0.15200
C1424       C  0.75758321  0.49596583  0.50211134    -0.30400
H1425       H  0.73702345  0.53552777  0.52204055     0.13800
H1426       H  0.76865860  0.48636278  0.48147389     0.14400
C1427       C  0.65768954  0.49970963  0.38924013    -0.15200
C1428       C  0.63077766  0.50888024  0.37558839    -0.30400
H1429       H  0.66643220  0.47609219  0.38612787     0.13800
H1430       H  0.62255545  0.53278342  0.37795319     0.14400
C1431       C  0.76099253  0.58204761  0.33170813    -0.12000
C1432       C  0.76695939  0.58883124  0.30467368    -0.13600
C1433       C  0.53547753  0.74305189  0.49994475    -0.15200
C1434       C  0.50550604  0.75201044  0.49815096    -0.30400
H1435       H  0.54452526  0.73277040  0.52183321     0.13800
H1436       H  0.49642704  0.76188347  0.47608578     0.14400
C1437       C  0.50623830  0.65020749  0.38826617    -0.15200
C1438       C  0.51397994  0.62380607  0.37352784    -0.30400
H1439       H  0.48277888  0.65967746  0.38605915     0.13800
H1440       H  0.53772666  0.61496694  0.37480853     0.14400
C1441       C  0.64671630  0.64877434  0.44495674    -0.15200
C1442       C  0.67501348  0.64960261  0.43191067    -0.30400
H1443       H  0.63914973  0.62756779  0.45709174     0.13800
H1444       H  0.68305854  0.67050041  0.41961364     0.14400
C1445       C  0.71389007  0.68317357  0.21383039    -0.12100
C1446       C  0.72346436  0.66770931  0.24178938     0.10000
C1447       C  0.71098596  0.67724062  0.27061986    -0.12100
C1448       C  0.68826181  0.70091143  0.27114796    -0.12100
C1449       C  0.67776127  0.71518146  0.24284738     0.10000
C1450       C  0.69135489  0.70651624  0.21435211    -0.12100
H1451       H  0.72394482  0.67740427  0.19136184     0.14000
H1452       H  0.71804430  0.66581958  0.29256303     0.14000
H1453       H  0.67821943  0.70729607  0.29345303     0.14000
H1454       H  0.68464215  0.71790223  0.19227401     0.14000
C1455       C  0.59878792  0.75169239  0.33623711    -0.12000
C1456       C  0.60521806  0.75842558  0.30923846    -0.13600
C1457       C  0.88097559  0.67839781  0.25596419    -0.12100
C1458       C  0.87197688  0.70846898  0.26471545     0.10000
C1459       C  0.84045167  0.71553180  0.26881160    -0.12100
C1460       C  0.81791074  0.69272551  0.26372630    -0.12100
C1461       C  0.82671919  0.66274186  0.25414853     0.10000
C1462       C  0.85844199  0.65566638  0.25051220    -0.12100
H1463       H  0.90535079  0.67272816  0.25291700     0.14000
H1464       H  0.83334292  0.73865115  0.27594370     0.14000
H1465       H  0.79358966  0.69881107  0.26635850     0.14000
H1466       H  0.86576132  0.63259548  0.24342591     0.14000
C1467       C  0.95227000  0.75118038  0.17962303    -0.12000
C1468       C  0.94651337  0.75624535  0.20699869    -0.13600
C1469       C  0.85649340  0.86866198  0.25716779    -0.12100
C1470       C  0.82806847  0.86047763  0.24322742     0.10000
C1471       C  0.82201134  0.82922866  0.23631317    -0.12100
C1472       C  0.84430148  0.80620235  0.24321086    -0.12100
C1473       C  0.87279926  0.81410992  0.25750681     0.10000
C1474       C  0.87874008  0.84561154  0.26433687    -0.12100
H1475       H  0.86125675  0.89279192  0.26280372     0.14000
H1476       H  0.79998028  0.82268131  0.22571541     0.14000
H1477       H  0.83886412  0.78217640  0.23796203     0.14000
H1478       H  0.90062005  0.85246067  0.27501832     0.14000
C1479       C  0.69115383  0.87286380  0.24127707    -0.12100
C1480       C  0.72222467  0.86396658  0.24671097     0.10000
C1481       C  0.72905639  0.83326733  0.25692752    -0.12100
C1482       C  0.70532214  0.81109175  0.25916572    -0.12100
C1483       C  0.67451320  0.81952158  0.25146649     0.10000
C1484       C  0.66748569  0.85089400  0.24385576    -0.12100
H1485       H  0.68526725  0.89664447  0.23419266     0.14000
H1486       H  0.75288232  0.82594698  0.26135707     0.14000
H1487       H  0.71138254  0.78703572  0.26489757     0.14000
H1488       H  0.64378340  0.85818102  0.23860238     0.14000
C1489       C  0.53773700  0.79263565  0.99630984    -0.15200
C1490       C  0.50994644  0.77835554  0.99694457    -0.30400
H1491       H  0.54401747  0.80642981  0.97557469     0.13800
H1492       H  0.50351285  0.76464658  0.01767585     0.14400
C1493       C  0.50904844  0.88945734  0.10348072    -0.15200
C1494       C  0.51666560  0.91338781  0.12199240    -0.30400
H1495       H  0.48506540  0.88156614  0.10207010     0.13800
H1496       H  0.54066116  0.92122060  0.12350640     0.14400
C1497       C  0.58931786  0.77128812  0.19096829    -0.12000
C1498       C  0.58134177  0.77840129  0.16431554    -0.13600
C1499       C  0.74061046  0.02752689  0.97553615    -0.15200
C1500       C  0.74977606  0.03064650  0.00578035    -0.30400
H1501       H  0.73403450  0.00461277  0.96711934     0.13800
H1502       H  0.75559721  0.05380864  0.01409813     0.14400
C1503       C  0.63877729  0.01739367  0.10920390    -0.15200
C1504       C  0.62576140  0.00718065  0.13605297    -0.30400
H1505       H  0.63435237  0.04104015  0.10039090     0.13800
H1506       H  0.63084900  0.98381648  0.14528083     0.14400
C1507       C  0.77384318  0.94527752  0.18116255    -0.12000
C1508       C  0.76687423  0.95534795  0.15513407    -0.13600
C1509       C  0.66306880  0.89500726  0.04937472    -0.15200
C1510       C  0.66086708  0.86935356  0.06806770    -0.30400
H1511       H  0.64449972  0.90021000  0.03243237     0.13800
H1512       H  0.67915267  0.86371490  0.08516802     0.14400
C1513       C  0.77705510  0.98437950  0.49296636    -0.15200
C1514       C  0.76406020  0.01288328  0.48945560    -0.30400
H1515       H  0.78699551  0.97741531  0.51572410     0.13800
H1516       H  0.75404154  0.01992892  0.46675833     0.14400
C1517       C  0.91233400  0.00306107  0.38216847    -0.15200
C1518       C  0.88856968  0.01076119  0.40074890    -0.30400
H1519       H  0.91847944  0.97862034  0.37917605     0.13800
H1520       H  0.88162409  0.03509776  0.40287226     0.14400
C1521       C  0.78135251  0.93391166  0.30020578    -0.12000
C1522       C  0.78639968  0.93806608  0.32791805    -0.13600
C1523       C  0.01078280  0.77508917  0.51969582    -0.15200
C1524       C  0.04108866  0.76740060  0.51899379    -0.30400
H1525       H  0.00120121  0.78475620  0.54106012     0.13800
H1526       H  0.05070926  0.75808217  0.49748228     0.14400
C1527       C  0.03178948  0.87987207  0.40894992    -0.15200
C1528       C  0.02136655  0.90142013  0.38798094    -0.30400
H1529       H  0.05657247  0.87509126  0.41146108     0.13800
H1530       H  0.99652332  0.90573498  0.38519919     0.14400
C1531       C  0.96129259  0.76770402  0.35332586    -0.12000
C1532       C  0.95330692  0.76280184  0.32642008    -0.13600
C1533       C  0.89339472  0.86300783  0.45549112    -0.15200
C1534       C  0.86762510  0.86225680  0.43732440    -0.30400
H1535       H  0.89739254  0.88289008  0.47060722     0.13800
H1536       H  0.86340578  0.84271241  0.42186052     0.14400
loop_ 
_geom_bond_atom_site_label_1 
_geom_bond_atom_site_label_2 
_geom_bond_distance 
_geom_bond_site_symmetry_2 
_ccdc_geom_bond_type 
In1           O3   2.262       .  S
In1           O4   2.221       .  S
In1          O12   2.252       .  S
In1           O6   2.256   1_655  S
In1           O8   2.275       .  S
In1           O9   2.225       .  S
In1          O10   2.240       .  S
In1          O13   2.253   1_655  S
C2            O8   1.265       .  A
C2           O10   1.253       .  A
C2         C1531   1.441       .  S
O3           C11   1.265       .  A
O4           C11   1.259       .  A
C5           O12   1.255       .  A
C5            O6   1.260   1_655  A
C5         C1523   1.475   1_655  S
C7            O9   1.259   1_455  A
C7           O13   1.259       .  A
C7         C1527   1.465       .  S
C11        C1533   1.469       .  S
In14         O16   2.246       .  S
In14         O17   2.233       .  S
In14         O25   2.248       .  S
In14         O19   2.259       .  S
In14         O21   2.276       .  S
In14         O22   2.220       .  S
In14         O23   2.236       .  S
In14         O26   2.265       .  S
C15          O21   1.265       .  A
C15          O23   1.254       .  A
C15        C1522   1.440       .  S
O16          C24   1.258       .  A
O17          C24   1.260       .  A
C18          O25   1.257       .  A
C18          O19   1.261       .  A
C18        C1513   1.477       .  S
C20          O22   1.260       .  A
C20          O26   1.263       .  A
C20        C1534   1.475       .  S
C24        C1518   1.465   1_565  S
In27         O29   2.248   1_565  S
In27         O30   2.231       .  S
In27         O38   2.284       .  S
In27         O32   2.242   1_565  S
In27         O34   2.274       .  S
In27         O35   2.236       .  S
In27         O36   2.241       .  S
In27         O39   2.272       .  S
C28          O34   1.266       .  A
C28          O36   1.256       .  A
C28        C1508   1.443       .  S
O29          C37   1.257       .  A
O30          C37   1.257   1_565  A
C31          O38   1.263   1_545  A
C31          O32   1.257       .  A
C31        C1500   1.481       .  S
C33          O35   1.259       .  A
C33          O39   1.263       .  A
C33        C1509   1.477       .  S
C37        C1503   1.463       .  S
In40         O42   2.276       .  S
In40         O43   2.236       .  S
In40         O51   2.250       .  S
In40         O45   2.267       .  S
In40         O47   2.280       .  S
In40         O48   2.238       .  S
In40         O49   2.239       .  S
In40         O52   2.247       .  S
C41          O47   1.266       .  A
C41          O49   1.255       .  A
C41        C1498   1.442       .  S
O42          C50   1.263       .  A
O43          C50   1.260       .  A
C44          O51   1.257       .  A
C44          O45   1.261       .  A
C44        C1489   1.477   1_554  S
C46          O48   1.260       .  A
C46          O52   1.258       .  A
C46        C1493   1.466       .  S
C50        C1510   1.482       .  S
C53          C54   1.545       .  S
C53          C59   1.532       .  S
C53          C57   1.533       .  S
C53        C1507   1.476       .  S
C54          H61   1.086       .  S
C54          C55   1.374       .  D
C55          C56   1.532       .  S
C55        C1521   1.446       .  S
C56          C60   1.531       .  S
C56          C58   1.532       .  S
C56          H62   1.112       .  S
C57          H63   1.086       .  S
C57          C58   1.363       .  D
C58        C1470   1.465       .  S
C59          H64   1.087       .  S
C59          C60   1.364       .  D
C60        C1480   1.475       .  S
C65          C66   1.529       .  S
C65          C71   1.534       .  S
C65          C69   1.546       .  S
C65        C1532   1.473       .  S
C66          H73   1.087       .  S
C66          C67   1.359       .  D
C67        C1458   1.464       .  S
C67          C68   1.533       .  S
C68          C72   1.537       .  S
C68          C70   1.535       .  S
C68          H74   1.111       .  S
C69          H75   1.086       .  S
C69          C70   1.375       .  D
C70        C1468   1.452       .  S
C71          H76   1.086       .  S
C71          C72   1.366       .  D
C72        C1473   1.482       .  S
C77          C78   1.524       .  S
C77          C83   1.525       .  S
C77          C81   1.540       .  S
C77        C1497   1.473       .  S
C78          H85   1.086       .  S
C78          C79   1.366       .  D
C79        C1449   1.481       .  S
C79          C80   1.541       .  S
C80          C84   1.540       .  S
C80          C82   1.540       .  S
C80          H86   1.110       .  S
C81          H87   1.086       .  S
C81          C82   1.374       .  D
C82        C1456   1.449       .  S
C83          H88   1.087       .  S
C83          C84   1.363       .  D
C84        C1483   1.478       .  S
In89         O91   2.262       .  S
In89         O92   2.212       .  S
In89        O100   2.255       .  S
In89         O94   2.258       .  S
In89         O96   2.289       .  S
In89         O97   2.231       .  S
In89         O98   2.232       .  S
In89        O101   2.251       .  S
C90          O96   1.265       .  A
C90          O98   1.252       .  A
C90        C1455   1.442       .  S
O91          C99   1.266       .  A
O92          C99   1.259       .  A
C93         O100   1.257       .  A
C93          O94   1.261       .  A
C93        C1433   1.477       .  S
C95          O97   1.259       .  A
C95         O101   1.260       .  A
C95        C1437   1.466       .  S
C99        C1441   1.466       .  S
In102       O104   2.245       .  S
In102       O105   2.227       .  S
In102       O113   2.247       .  S
In102       O107   2.261       .  S
In102       O109   2.279       .  S
In102       O110   2.207       .  S
In102       O111   2.226       .  S
In102       O114   2.263       .  S
C103        O109   1.265       .  A
C103        O111   1.253       .  A
C103       C1431   1.438       .  S
O104        C112   1.259       .  A
O105        C112   1.260       .  A
C106        O113   1.256       .  A
C106        O107   1.261       .  A
C106       C1423   1.476       .  S
C108        O110   1.262       .  A
C108        O114   1.265       .  A
C108       C1442   1.474       .  S
C112       C1427   1.465       .  S
In115       O117   2.271       .  S
In115       O118   2.226       .  S
In115       O126   2.275       .  S
In115       O120   2.248   1_655  S
In115       O122   2.287       .  S
In115       O123   2.233       .  S
In115       O124   2.238       .  S
In115       O127   2.242   1_655  S
C116        O122   1.267       .  A
C116        O124   1.254       .  A
C116       C1467   1.446       .  S
O117        C125   1.265       .  A
O118        C125   1.257       .  A
C119        O126   1.261   1_455  A
C119        O120   1.258       .  A
C119       C1411   1.481       .  S
C121        O123   1.258       .  A
C121        O127   1.258   1_655  A
C121       C1415   1.462   1_655  S
C125       C1419   1.473       .  S
In128       O130   2.248       .  S
In128       O131   2.227       .  S
In128       O139   2.251       .  S
In128       O133   2.259       .  S
In128       O135   2.266       .  S
In128       O136   2.232       .  S
In128       O137   2.239       .  S
In128       O140   2.262       .  S
C129        O135   1.264       .  A
C129        O137   1.254       .  A
C129       C1409   1.436       .  S
O130        C138   1.259       .  A
O131        C138   1.259       .  A
C132        O139   1.257       .  A
C132        O133   1.260       .  A
C132       C1402   1.477   1_554  S
C134        O136   1.261       .  A
C134        O140   1.262       .  A
C134       C1420   1.477       .  S
C138       C1405   1.463       .  S
C141        C142   1.537       .  S
C141        C147   1.531       .  S
C141        C145   1.526       .  S
C141       C1410   1.469       .  S
C142        H149   1.086       .  S
C142        C143   1.371       .  D
C143        C144   1.538       .  S
C143       C1432   1.445       .  S
C144        C148   1.537       .  S
C144        C146   1.539       .  S
C144        H150   1.110       .  S
C145        H151   1.086       .  S
C145        C146   1.366       .  D
C146       C1446   1.483       .  S
C147        H152   1.087       .  S
C147        C148   1.364       .  D
C148       C1461   1.476       .  S
In153       O155   2.243       .  S
In153       O156   2.228       .  S
In153       O164   2.265       .  S
In153       O158   2.254       .  S
In153       O160   2.295       .  S
In153       O161   2.216       .  S
In153       O162   2.235       .  S
In153       O165   2.272       .  S
C154        O160   1.265       .  A
C154        O162   1.252       .  A
C154       C1396   1.445       .  S
O155        C163   1.259       .  A
O156        C163   1.258       .  A
C157        O164   1.259       .  A
C157        O158   1.259       .  A
C157       C1391   1.481       .  S
C159        O161   1.259       .  A
C159        O165   1.268       .  A
C159       C1398   1.472       .  S
C163       C1504   1.462       .  S
In166       O168   2.259       .  S
In166       O169   2.222       .  S
In166       O177   2.248       .  S
In166       O171   2.264       .  S
In166       O173   2.281       .  S
In166       O174   2.238       .  S
In166       O175   2.231       .  S
In166       O178   2.239       .  S
C167        O173   1.266       .  A
C167        O175   1.254       .  A
C167       C1390   1.441       .  S
O168        C176   1.264       .  A
O169        C176   1.262       .  A
C170        O177   1.258       .  A
C170        O171   1.262       .  A
C170       C1381   1.479       .  S
C172        O174   1.260       .  A
C172        O178   1.257       .  A
C172       C1386   1.463   1_554  S
C176       C1397   1.477       .  S
C179        C180   1.545       .  S
C179        C185   1.530       .  S
C179        C183   1.526       .  S
C179       C1379   1.477       .  S
C180        H187   1.086       .  S
C180        C181   1.376       .  D
C181        C182   1.534       .  S
C181       C1395   1.451       .  S
C182        C186   1.537       .  S
C182        C184   1.536       .  S
C182        H188   1.111       .  S
C183        H189   1.087       .  S
C183        C184   1.365       .  D
C184       C1360   1.476       .  S
C185        H190   1.087       .  S
C185        C186   1.364       .  D
C186       C1370   1.477       .  S
In191       O193   2.272       .  S
In191       O194   2.231       .  S
In191       O202   2.276       .  S
In191       O196   2.246       .  S
In191       O198   2.283       .  S
In191       O199   2.227       .  S
In191       O200   2.232       .  S
In191       O203   2.252       .  S
C192        O198   1.266       .  A
C192        O200   1.254       .  A
C192       C1353   1.442       .  S
O193        C201   1.265       .  A
O194        C201   1.259       .  A
C195        O202   1.262       .  A
C195        O196   1.256       .  A
C195       C1345   1.479       .  S
C197        O199   1.257       .  A
C197        O203   1.259       .  A
C197       C1349   1.464       .  S
C201       C1355   1.477       .  S
In204       O206   2.239       .  S
In204       O207   2.242       .  S
In204       O215   2.253       .  S
In204       O209   2.280       .  S
In204       O211   2.279       .  S
In204       O212   2.241       .  S
In204       O213   2.248       .  S
In204       O216   2.268       .  S
C205        O211   1.265       .  A
C205        O213   1.255       .  A
C205       C1380   1.445       .  S
O206        C214   1.258       .  A
O207        C214   1.260       .  A
C208        O215   1.257       .  A
C208        O209   1.261       .  A
C208       C1342   1.483   1_655  S
C210        O212   1.261       .  A
C210        O216   1.262       .  A
C210       C1356   1.481       .  S
C214       C1517   1.463       .  S
C217        C218   1.530       .  S
C217        C223   1.530       .  S
C217        C221   1.542       .  S
C217       C1339   1.466       .  S
C218        H225   1.086       .  S
C218        C219   1.366       .  D
C219       C1373   1.478       .  S
C219        C220   1.538       .  S
C220        C224   1.535       .  S
C220        C222   1.532       .  S
C220        H226   1.108       .  S
C221        H227   1.086       .  S
C221        C222   1.371       .  D
C222       C1354   1.448       .  S
C223        H228   1.086       .  S
C223        C224   1.363       .  D
C224       C1333   1.479       .  S
In229       O231   2.241       .  S
In229       O232   2.236       .  S
In229       O240   2.278       .  S
In229       O234   2.246       .  S
In229       O236   2.285       .  S
In229       O237   2.229       .  S
In229       O238   2.235       .  S
In229       O241   2.268       .  S
C230        O236   1.266       .  A
C230        O238   1.254       .  A
C230       C1324   1.444       .  S
O231        C239   1.259       .  A
O232        C239   1.260       .  A
C233        O240   1.261       .  A
C233        O234   1.256       .  A
C233       C1319   1.479       .  S
C235        O237   1.258       .  A
C235        O241   1.264       .  A
C235       C1325   1.473       .  S
C239       C1428   1.464       .  S
In242       O244   2.264       .  S
In242       O245   2.232       .  S
In242       O253   2.260       .  S
In242       O247   2.251       .  S
In242       O249   2.261       .  S
In242       O250   2.238       .  S
In242       O251   2.235       .  S
In242       O254   2.245       .  S
C243        O249   1.264       .  A
C243        O251   1.255       .  A
C243       C1340   1.434       .  S
O244        C252   1.262       .  A
O245        C252   1.260       .  A
C246        O253   1.260       .  A
C246        O247   1.257       .  A
C246       C1312   1.476       .  S
C248        O250   1.259       .  A
C248        O254   1.259       .  A
C248       C1315   1.465       .  S
C252       C1326   1.477       .  S
C255        C256   1.523       .  S
C255        C261   1.528       .  S
C255        C259   1.540       .  S
C255       C1310   1.469       .  S
C256        H263   1.087       .  S
C256        C257   1.364       .  D
C257       C1363   1.477       .  S
C257        C258   1.538       .  S
C258        C262   1.535       .  S
C258        C260   1.538       .  S
C258        H264   1.111       .  S
C259        H265   1.086       .  S
C259        C260   1.374       .  D
C260       C1389   1.447       .  S
C261        H266   1.087       .  S
C261        C262   1.364       .  D
C262       C1300   1.474       .  S
In267       O269   2.249       .  S
In267       O270   2.231       .  S
In267       O278   2.264       .  S
In267       O272   2.246       .  S
In267       O274   2.261       .  S
In267       O275   2.229       .  S
In267       O276   2.238       .  S
In267       O279   2.271       .  S
C268        O274   1.265       .  A
C268        O276   1.257       .  A
C268       C1293   1.438       .  S
O269        C277   1.258       .  A
O270        C277   1.257       .  A
C271        O278   1.260       .  A
C271        O272   1.256       .  A
C271       C1289   1.474       .  S
C273        O275   1.259       .  A
C273        O279   1.264       .  A
C273       C1295   1.476       .  S
C277       C1406   1.463       .  S
In280       O282   2.268       .  S
In280       O283   2.233       .  S
In280       O291   2.257       .  S
In280       O285   2.260       .  S
In280       O287   2.275       .  S
In280       O288   2.229       .  S
In280       O289   2.231       .  S
In280       O292   2.256       .  S
C281        O287   1.266       .  A
C281        O289   1.253       .  A
C281       C1309   1.437       .  S
O282        C290   1.264       .  A
O283        C290   1.261       .  A
C284        O291   1.257       .  A
C284        O285   1.260       .  A
C284       C1282   1.478   1_655  S
C286        O288   1.258       .  A
C286        O292   1.259       .  A
C286       C1285   1.467   1_554  S
C290       C1296   1.481       .  S
C293        C294   1.542       .  S
C293        C299   1.526       .  S
C293        C297   1.527       .  S
C293       C1294   1.469       .  S
C294        H301   1.086       .  S
C294        C295   1.374       .  D
C295        C296   1.535       .  S
C295       C1323   1.450       .  S
C296        C300   1.535       .  S
C296        C298   1.539       .  S
C296        H302   1.110       .  S
C297        H303   1.086       .  S
C297        C298   1.366       .  D
C298       C1330   1.477       .  S
C299        H304   1.087       .  S
C299        C300   1.362       .  D
C300       C1303   1.474       .  S
In305       O307   2.243       .  S
In305       O308   2.235       .  S
In305       O316   2.265       .  S
In305       O310   2.257       .  S
In305       O312   2.274       .  S
In305       O313   2.235       .  S
In305       O314   2.238       .  S
In305       O317   2.276       .  S
C306        O312   1.266       .  A
C306        O314   1.255       .  A
C306       C1276   1.440       .  S
O307        C315   1.257       .  A
O308        C315   1.259       .  A
C309        O316   1.260       .  A
C309        O310   1.258       .  A
C309       C1267   1.480       .  S
C311        O313   1.260       .  A
C311        O317   1.263       .  A
C311       C1277   1.484       .  S
C315       C1272   1.462   1_655  S
In318       O320   2.288       .  S
In318       O321   2.227       .  S
In318       O329   2.262       .  S
In318       O323   2.253       .  S
In318       O325   2.277       .  S
In318       O326   2.242       .  S
In318       O327   2.237       .  S
In318       O330   2.244       .  S
C319        O325   1.265       .  A
C319        O327   1.256       .  A
C319       C1266   1.442       .  S
O320        C328   1.265       .  A
O321        C328   1.257       .  A
C322        O329   1.260       .  A
C322        O323   1.257       .  A
C322       C1401   1.477       .  S
C324        O326   1.259       .  A
C324        O330   1.258       .  A
C324       C1286   1.465   1_556  S
C328       C1278   1.478       .  S
In331       O333   2.244       .  S
In331       O334   2.232       .  S
In331       O342   2.258       .  S
In331       O336   2.248       .  S
In331       O338   2.292       .  S
In331       O339   2.220       .  S
In331       O340   2.235       .  S
In331       O343   2.275       .  S
C332        O338   1.264       .  A
C332        O340   1.251       .  A
C332       C1259   1.443       .  S
O333        C341   1.259       .  A
O334        C341   1.260       .  A
C335        O342   1.259       .  A
C335        O336   1.260       .  A
C335       C1252   1.477       .  S
C337        O339   1.258       .  A
C337        O343   1.266       .  A
C337       C1261   1.473       .  S
C341       C1255   1.464   1_655  S
In344       O346   2.269       .  S
In344       O347   2.225       .  S
In344       O355   2.258       .  S
In344       O349   2.259       .  S
In344       O351   2.272       .  S
In344       O352   2.232       .  S
In344       O353   2.238       .  S
In344       O356   2.244       .  S
C345        O351   1.265       .  A
C345        O353   1.254       .  A
C345       C1250   1.439       .  S
O346        C354   1.263       .  A
O347        C354   1.261       .  A
C348        O355   1.259       .  A
C348        O349   1.258       .  A
C348       C1514   1.478       .  S
C350        O352   1.259       .  A
C350        O356   1.259       .  A
C350       C1350   1.462       .  S
C354       C1262   1.479       .  S
C357        C358   1.543       .  S
C357        C363   1.528       .  S
C357        C361   1.530       .  S
C357       C1275   1.472       .  S
C358        H365   1.086       .  S
C358        C359   1.374       .  D
C359        C360   1.533       .  S
C359       C1260   1.449       .  S
C360        C364   1.532       .  S
C360        C362   1.537       .  S
C360        H366   1.110       .  S
C361        H367   1.086       .  S
C361        C362   1.365       .  D
C362       C1240   1.476       .  S
C363        H368   1.087       .  S
C363        C364   1.363       .  D
C364       C1230   1.474       .  S
C369        C370   1.530       .  S
C369        C375   1.526       .  S
C369        C373   1.546       .  S
C369       C1265   1.473       .  S
C370        H377   1.086       .  S
C370        C371   1.368       .  D
C371       C1218   1.487       .  S
C371        C372   1.545       .  S
C372        C376   1.532       .  S
C372        C374   1.533       .  S
C372        H378   1.109       .  S
C373        H379   1.086       .  S
C373        C374   1.375       .  D
C374       C1228   1.450       .  S
C375        H380   1.087       .  S
C375        C376   1.360       .  D
C376       C1233   1.472       .  S
C381        C382   1.528       .  S
C381        C387   1.528       .  S
C381        C385   1.542       .  S
C381       C1249   1.471       .  S
C382        H389   1.086       .  S
C382        C383   1.366       .  D
C383       C1209   1.477       .  S
C383        C384   1.537       .  S
C384        C388   1.537       .  S
C384        C386   1.533       .  S
C384        H390   1.109       .  S
C385        H391   1.086       .  S
C385        C386   1.372       .  D
C386       C1215   1.446       .  S
C387        H392   1.086       .  S
C387        C388   1.365       .  D
C388       C1243   1.481       .  S
In393       O395   2.247       .  S
In393       O396   2.222       .  S
In393       O404   2.252       .  S
In393       O398   2.268       .  S
In393       O400   2.284       .  S
In393       O401   2.224       .  S
In393       O402   2.237       .  S
In393       O405   2.282       .  S
C394        O400   1.265       .  A
C394        O402   1.253       .  A
C394       C1199   1.441       .  S
O395        C403   1.259       .  A
O396        C403   1.260       .  A
C397        O404   1.258       .  A
C397        O398   1.260       .  A
C397       C1192   1.480       .  S
C399        O401   1.258       .  A
C399        O405   1.266       .  A
C399       C1202   1.477       .  S
C403       C1195   1.462       .  S
In406       O408   2.272       .  S
In406       O409   2.237       .  S
In406       O417   2.264       .  S
In406       O411   2.249       .  S
In406       O413   2.278       .  S
In406       O414   2.227       .  S
In406       O415   2.231       .  S
In406       O418   2.258       .  S
C407        O413   1.265       .  A
C407        O415   1.254       .  A
C407       C1216   1.440       .  S
O408        C416   1.263       .  A
O409        C416   1.260       .  A
C410        O417   1.262       .  A
C410        O411   1.257       .  A
C410       C1424   1.477       .  S
C412        O414   1.258       .  A
C412        O418   1.259       .  A
C412       C1316   1.466       .  S
C416       C1201   1.483       .  S
In419       O421   2.271       .  S
In419       O422   2.221       .  S
In419       O430   2.270       .  S
In419       O424   2.258       .  S
In419       O426   2.284       .  S
In419       O427   2.230       .  S
In419       O428   2.237       .  S
In419       O431   2.246       .  S
C420        O426   1.266       .  A
C420        O428   1.253       .  A
C420       C1227   1.444       .  S
O421        C429   1.264       .  A
O422        C429   1.258       .  A
C423        O430   1.259       .  A
C423        O424   1.259       .  A
C423       C1499   1.485       .  S
C425        O427   1.259       .  A
C425        O431   1.259       .  A
C425       C1385   1.464       .  S
C429       C1187   1.470       .  S
In432       O434   2.251       .  S
In432       O435   2.225       .  S
In432       O443   2.250       .  S
In432       O437   2.257       .  S
In432       O439   2.275       .  S
In432       O440   2.217       .  S
In432       O441   2.230       .  S
In432       O444   2.269       .  S
C433        O439   1.266       .  A
C433        O441   1.253       .  A
C433       C1185   1.437       .  S
O434        C442   1.259       .  A
O435        C442   1.259       .  A
C436        O443   1.257       .  A
C436        O437   1.261       .  A
C436       C1177   1.477       .  S
C438        O440   1.261       .  A
C438        O444   1.264       .  A
C438       C1188   1.477       .  S
C442       C1182   1.464       .  S
C445        C446   1.540       .  S
C445        C451   1.532       .  S
C445        C449   1.525       .  S
C445       C1186   1.470       .  S
C446        H453   1.086       .  S
C446        C447   1.373       .  D
C447        C448   1.536       .  S
C447       C1200   1.448       .  S
C448        C452   1.537       .  S
C448        C450   1.540       .  S
C448        H454   1.110       .  S
C449        H455   1.087       .  S
C449        C450   1.364       .  D
C450       C1206   1.477       .  S
C451        H456   1.087       .  S
C451        C452   1.365       .  D
C452       C1221   1.482       .  S
In457       O459   2.248       .  S
In457       O460   2.233       .  S
In457       O468   2.258       .  S
In457       O462   2.264       .  S
In457       O464   2.279       .  S
In457       O465   2.231       .  S
In457       O466   2.247       .  S
In457       O469   2.272       .  S
C458        O464   1.265       .  A
C458        O466   1.255       .  A
C458       C1172   1.444       .  S
O459        C467   1.259       .  A
O460        C467   1.260       .  A
C461        O468   1.258       .  A
C461        O462   1.261       .  A
C461       C1346   1.481       .  S
C463        O465   1.260       .  A
C463        O469   1.262       .  A
C463       C1173   1.479       .  S
C467       C1256   1.465   1_455  S
In470       O472   2.273       .  S
In470       O473   2.226       .  S
In470       O481   2.262       .  S
In470       O475   2.248       .  S
In470       O477   2.235       .  S
In470       O478   2.229       .  S
In470       O479   2.277       .  S
In470       O482   2.252       .  S
C471        O477   1.253       .  A
C471        O479   1.265       .  A
C471       C1169   1.439       .  S
O472        C480   1.266       .  A
O473        C480   1.259       .  A
C474        O481   1.258       .  A
C474        O475   1.258       .  A
C474       C1161   1.476       .  S
C476        O478   1.259       .  A
C476        O482   1.260       .  A
C476       C1165   1.466       .  S
C480       C1174   1.474       .  S
C483        C484   1.524       .  S
C483        C489   1.524       .  S
C483        C487   1.544       .  S
C483       C1170   1.470       .  S
C484        H491   1.086       .  S
C484        C485   1.366       .  D
C485       C1153   1.484       .  S
C485        C486   1.544       .  S
C486        C490   1.539       .  S
C486        C488   1.537       .  S
C486        H492   1.110       .  S
C487        H493   1.086       .  S
C487        C488   1.375       .  D
C488       C1159   1.449       .  S
C489        H494   1.087       .  S
C489        C490   1.361       .  D
C490       C1140   1.478       .  S
In495       O497   2.241       .  S
In495       O498   2.238       .  S
In495       O506   2.265       .  S
In495       O500   2.252       .  S
In495       O502   2.278       .  S
In495       O503   2.225       .  S
In495       O504   2.239       .  S
In495       O507   2.270       .  S
C496        O502   1.265       .  A
C496        O504   1.255       .  A
C496       C1133   1.443       .  S
O497        C505   1.258       .  A
O498        C505   1.259       .  A
C499        O506   1.261       .  A
C499        O500   1.257       .  A
C499       C1382   1.479       .  S
C501        O503   1.258       .  A
C501        O507   1.264       .  A
C501       C1135   1.472       .  S
C505       C1181   1.463       .  S
In508       O510   2.269       .  S
In508       O511   2.229       .  S
In508       O519   2.251       .  S
In508       O513   2.266       .  S
In508       O515   2.284       .  S
In508       O516   2.244       .  S
In508       O517   2.233       .  S
In508       O520   2.242       .  S
C509        O515   1.266       .  A
C509        O517   1.254       .  A
C509       C1160   1.443       .  S
O510        C518   1.263       .  A
O511        C518   1.261       .  A
C512        O519   1.257       .  A
C512        O513   1.262       .  A
C512       C1125   1.479   1_556  S
C514        O516   1.261       .  A
C514        O520   1.258       .  A
C514       C1130   1.466       .  S
C518       C1136   1.478       .  S
C521        C522   1.542       .  S
C521        C527   1.530       .  S
C521        C525   1.527       .  S
C521       C1124   1.472       .  S
C522        H529   1.086       .  S
C522        C523   1.374       .  D
C523        C524   1.537       .  S
C523       C1134   1.449       .  S
C524        C528   1.534       .  S
C524        C526   1.540       .  S
C524        H530   1.111       .  S
C525        H531   1.086       .  S
C525        C526   1.366       .  D
C526       C1150   1.479       .  S
C527        H532   1.087       .  S
C527        C528   1.359       .  D
C528       C1114   1.469       .  S
In533       O535   2.271       .  S
In533       O536   2.221       .  S
In533       O544   2.251       .  S
In533       O538   2.258       .  S
In533       O540   2.272       .  S
In533       O541   2.238       .  S
In533       O542   2.222       .  S
In533       O545   2.239       .  S
C534        O540   1.266       .  A
C534        O542   1.255       .  A
C534       C1107   1.435       .  S
O535        C543   1.264       .  A
O536        C543   1.261       .  A
C537        O544   1.260       .  A
C537        O538   1.258       .  A
C537       C1099   1.478       .  S
C539        O541   1.260       .  A
C539        O545   1.257       .  A
C539       C1103   1.462       .  S
C543       C1109   1.479       .  S
In546       O548   2.243       .  S
In546       O549   2.229       .  S
In546       O557   2.258       .  S
In546       O551   2.261       .  S
In546       O553   2.269       .  S
In546       O554   2.217       .  S
In546       O555   2.241       .  S
In546       O558   2.275       .  S
C547        O553   1.265       .  A
C547        O555   1.254       .  A
C547       C1123   1.440       .  S
O548        C556   1.259       .  A
O549        C556   1.259       .  A
C550        O557   1.256       .  A
C550        O551   1.259       .  A
C550       C1311   1.477       .  S
C552        O554   1.258       .  A
C552        O558   1.266       .  A
C552       C1110   1.472       .  S
C556       C1196   1.461       .  S
C559        C560   1.548       .  S
C559        C565   1.528       .  S
C559        C563   1.530       .  S
C559       C1171   1.476       .  S
C560        H567   1.086       .  S
C560        C561   1.377       .  D
C561        C562   1.531       .  S
C561       C1098   1.452       .  S
C562        C566   1.533       .  S
C562        C564   1.537       .  S
C562        H568   1.110       .  S
C563        H569   1.086       .  S
C563        C564   1.365       .  D
C564       C1088   1.475       .  S
C565        H570   1.087       .  S
C565        C566   1.363       .  D
C566       C1143   1.476       .  S
In571       O573   2.249       .  S
In571       O574   2.225       .  S
In571       O582   2.269       .  S
In571       O576   2.257       .  S
In571       O578   2.291       .  S
In571       O579   2.226       .  S
In571       O580   2.234       .  S
In571       O583   2.282       .  S
C572        O578   1.268       .  A
C572        O580   1.253       .  A
C572       C1097   1.446       .  S
O573        C581   1.259       .  A
O574        C581   1.259       .  A
C575        O582   1.259       .  A
C575        O576   1.256       .  A
C575       C1281   1.478       .  S
C577        O579   1.258       .  A
C577        O583   1.266       .  A
C577       C1083   1.477       .  S
C581       C1271   1.464       .  S
In584       O586   2.270       .  S
In584       O587   2.242       .  S
In584       O595   2.275       .  S
In584       O589   2.249       .  S
In584       O591   2.257       .  S
In584       O592   2.228       .  S
In584       O593   2.248       .  S
In584       O596   2.252       .  S
C585        O591   1.264       .  A
C585        O593   1.257       .  A
C585       C1081   1.437       .  S
O586        C594   1.261       .  A
O587        C594   1.260       .  A
C588        O595   1.261       .  A
C588        O589   1.257       .  A
C588       C1073   1.479       .  S
C590        O592   1.258       .  A
C590        O596   1.259       .  A
C590       C1078   1.464       .  S
C594       C1084   1.483       .  S
C597        C598   1.532       .  S
C597        C603   1.530       .  S
C597        C601   1.537       .  S
C597       C1082   1.469       .  S
C598        H605   1.086       .  S
C598        C599   1.365       .  D
C599       C1117   1.477       .  S
C599        C600   1.537       .  S
C600        C604   1.534       .  S
C600        C602   1.535       .  S
C600        H606   1.110       .  S
C601        H607   1.086       .  S
C601        C602   1.370       .  D
C602       C1108   1.443       .  S
C603        H608   1.086       .  S
C603        C604   1.365       .  D
C604       C1091   1.479       .  S
In609       O611   2.235       .  S
In609       O612   2.230       .  S
In609       O620   2.261       .  S
In609       O614   2.248       .  S
In609       O616   2.297       .  S
In609       O617   2.206       .  S
In609       O618   2.234       .  S
In609       O621   2.279       .  S
C610        O616   1.266       .  A
C610        O618   1.252       .  A
C610       C1068   1.445       .  S
O611        C619   1.259       .  A
O612        C619   1.260       .  A
C613        O620   1.259       .  A
C613        O614   1.260       .  A
C613       C1074   1.480       .  S
C615        O617   1.257       .  A
C615        O621   1.267       .  A
C615       C1070   1.469       .  S
C619       C1063   1.461   1_554  S
In622       O624   2.268       .  S
In622       O625   2.212       .  S
In622       O633   2.249       .  S
In622       O627   2.251       .  S
In622       O629   2.268       .  S
In622       O630   2.223       .  S
In622       O631   2.228       .  S
In622       O634   2.250       .  S
C623        O629   1.264       .  A
C623        O631   1.253       .  A
C623       C1061   1.433       .  S
O624        C632   1.264       .  A
O625        C632   1.261       .  A
C626        O633   1.257       .  A
C626        O627   1.260       .  A
C626       C1290   1.475       .  S
C628        O630   1.258       .  A
C628        O634   1.259       .  A
C628       C1416   1.463       .  S
C632       C1069   1.477       .  S
C635        C636   1.526       .  S
C635        C641   1.535       .  S
C635        C639   1.539       .  S
C635       C1062   1.466       .  S
C636        H643   1.087       .  S
C636        C637   1.361       .  D
C637       C1053   1.468       .  S
C637        C638   1.534       .  S
C638        C642   1.539       .  S
C638        C640   1.535       .  S
C638        H644   1.109       .  S
C639        H645   1.086       .  S
C639        C640   1.370       .  D
C640       C1060   1.446       .  S
C641        H646   1.086       .  S
C641        C642   1.368       .  D
C642       C1040   1.487       .  S
In647       O649   2.243       .  S
In647       O650   2.234       .  S
In647       O658   2.258       .  S
In647       O652   2.250       .  S
In647       O654   2.272       .  S
In647       O655   2.224       .  S
In647       O656   2.231       .  S
In647       O659   2.282       .  S
C648        O654   1.265       .  A
C648        O656   1.253       .  A
C648       C1033   1.435       .  S
O649        C657   1.258       .  A
O650        C657   1.260       .  A
C651        O658   1.260       .  A
C651        O652   1.257       .  A
C651       C1162   1.474   1_565  S
C653        O655   1.258       .  A
C653        O659   1.266       .  A
C653       C1036   1.476       .  S
C657       C1029   1.464       .  S
In660       O662   2.277       .  S
In660       O663   2.236       .  S
In660       O671   2.265       .  S
In660       O665   2.266       .  S
In660       O667   2.275       .  S
In660       O668   2.240       .  S
In660       O669   2.240       .  S
In660       O672   2.241       .  S
C661        O667   1.265       .  A
C661        O669   1.255       .  A
C661       C1059   1.441       .  S
O662        C670   1.262       .  A
O663        C670   1.259       .  A
C664        O671   1.260       .  A
C664        O665   1.259       .  A
C664       C1341   1.484       .  S
C666        O668   1.259       .  A
C666        O672   1.258       .  A
C666       C1528   1.463       .  S
C670       C1035   1.482       .  S
C673        C674   1.542       .  S
C673        C679   1.528       .  S
C673        C677   1.528       .  S
C673       C1034   1.466       .  S
C674        H681   1.086       .  S
C674        C675   1.372       .  D
C675        C676   1.534       .  S
C675       C1027   1.445       .  S
C676        C680   1.529       .  S
C676        C678   1.540       .  S
C676        H682   1.110       .  S
C677        H683   1.086       .  S
C677        C678   1.368       .  D
C678       C1018   1.483       .  S
C679        H684   1.087       .  S
C679        C680   1.357       .  D
C680       C1050   1.460       .  S
In685       O687   2.264       .  S
In685       O688   2.223       .  S
In685       O696   2.264       .  S
In685       O690   2.264       .  S
In685       O692   2.280       .  S
In685       O693   2.235       .  S
In685       O694   2.237       .  S
In685       O697   2.250       .  S
C686        O692   1.265       .  A
C686        O694   1.254       .  A
C686       C1011   1.443       .  S
O687        C695   1.265       .  A
O688        C695   1.259       .  A
C689        O696   1.257       .  A
C689        O690   1.260       .  A
C689       C1320   1.482       .  S
C691        O693   1.258       .  A
C691        O697   1.260       .  A
C691       C1438   1.466       .  S
C695       C1013   1.471       .  S
In698       O700   2.252       .  S
In698       O701   2.229       .  S
In698       O709   2.246       .  S
In698       O703   2.271       .  S
In698       O705   2.277       .  S
In698       O706   2.224       .  S
In698       O707   2.234       .  S
In698       O710   2.265       .  S
C699        O705   1.265       .  A
C699        O707   1.253       .  A
C699       C1028   1.438       .  S
O700        C708   1.260       .  A
O701        C708   1.259       .  A
C702        O709   1.256       .  A
C702        O703   1.261       .  A
C702       C1100   1.477       .  S
C704        O706   1.261       .  A
C704        O710   1.263       .  A
C704       C1014   1.477       .  S
C708       C1007   1.465       .  S
C711        C712   1.549       .  S
C711        C717   1.524       .  S
C711        C715   1.531       .  S
C711       C1005   1.475       .  S
C712        H719   1.086       .  S
C712        C713   1.377       .  D
C713        C714   1.531       .  S
C713       C1067   1.451       .  S
C714        C718   1.532       .  S
C714        C716   1.540       .  S
C714        H720   1.111       .  S
C715        H721   1.086       .  S
C715        C716   1.367       .  D
C716       C1043   1.481       .  S
C717        H722   1.087       .  S
C717        C718   1.359       .  D
C718        C996   1.470       .  S
In723       O725   2.255       .  S
In723       O726   2.233       .  S
In723       O734   2.271       .  S
In723       O728   2.254       .  S
In723       O730   2.279       .  S
In723       O731   2.231       .  S
In723       O732   2.246       .  S
In723       O735   2.281       .  S
C724        O730   1.266       .  A
C724        O732   1.255       .  A
C724       C1006   1.445       .  S
O725        C733   1.260       .  A
O726        C733   1.259       .  A
C727        O734   1.259       .  A
C727        O728   1.256       .  A
C727       C1126   1.478   1_565  S
C729        O731   1.259       .  A
C729        O735   1.266       .  A
C729        C992   1.479       .  S
C733        C987   1.468   1_554  S
In736       O738   2.273       .  S
In736       O739   2.247       .  S
In736       O747   2.276       .  S
In736       O741   2.247       .  S
In736       O743   2.270       .  S
In736       O744   2.235       .  S
In736       O745   2.244       .  S
In736       O748   2.249       .  S
C737        O743   1.265       .  A
C737        O745   1.256       .  A
C737        C985   1.442       .  S
O738        C746   1.261       .  A
O739        C746   1.260       .  A
C740        O747   1.262       .  A
C740        O741   1.256       .  A
C740       C1392   1.479       .  S
C742        O744   1.260       .  A
C742        O748   1.258       .  A
C742       C1494   1.466       .  S
C746        C991   1.484       .  S
C749        C750   1.525       .  S
C749        C755   1.524       .  S
C749        C753   1.541       .  S
C749        C986   1.473       .  S
C750        H757   1.086       .  S
C750        C751   1.368       .  D
C751       C1021   1.488       .  S
C751        C752   1.546       .  S
C752        C756   1.539       .  S
C752        C754   1.539       .  S
C752        H758   1.110       .  S
C753        H759   1.086       .  S
C753        C754   1.374       .  D
C754       C1012   1.450       .  S
C755        H760   1.087       .  S
C755        C756   1.362       .  D
C756        C999   1.477       .  S
In761       O763   2.276       .  S
In761       O764   2.232       .  S
In761       O772   2.263       .  S
In761       O766   2.246   1_565  S
In761       O768   2.279       .  S
In761       O769   2.237       .  S
In761       O770   2.236       .  S
In761       O773   2.245   1_565  S
C762        O768   1.265       .  A
C762        O770   1.255       .  A
C762        C980   1.442       .  S
O763        C771   1.263       .  A
O764        C771   1.256       .  A
C765        O772   1.261       .  A
C765        O766   1.257   1_565  A
C765       C1178   1.476   1_565  S
C767        O769   1.260   1_545  A
C767        O773   1.258       .  A
C767       C1129   1.467       .  S
C771        C981   1.474       .  S
In774       O776   2.251       .  S
In774       O777   2.240       .  S
In774       O785   2.258       .  S
In774       O779   2.260       .  S
In774       O781   2.267       .  S
In774       O782   2.236       .  S
In774       O783   2.240       .  S
In774       O786   2.265       .  S
C775        O781   1.265       .  A
C775        O783   1.255       .  A
C775        C978   1.438       .  S
O776        C784   1.260       .  A
O777        C784   1.259       .  A
C778        O785   1.259       .  A
C778        O779   1.257       .  A
C778       C1490   1.478       .  S
C780        O782   1.260       .  A
C780        O786   1.262       .  A
C780        C982   1.479       .  S
C784        C988   1.467   1_556  S
In787       O789   2.240       .  S
In787       O790   2.230       .  S
In787       O798   2.264       .  S
In787       O792   2.258       .  S
In787       O794   2.286       .  S
In787       O795   2.233       .  S
In787       O796   2.243       .  S
In787       O799   2.271       .  S
C788        O794   1.265       .  A
C788        O796   1.253       .  A
C788        C971   1.444       .  S
O789        C797   1.258       .  A
O790        C797   1.261       .  A
C791        O798   1.259       .  A
C791        O792   1.260       .  A
C791       C1412   1.483       .  S
C793        O795   1.260       .  A
C793        O799   1.262       .  A
C793        C973   1.479       .  S
C797       C1064   1.462   1_556  S
In800       O802   2.269       .  S
In800       O803   2.226       .  S
In800       O811   2.265       .  S
In800       O805   2.267       .  S
In800       O807   2.282       .  S
In800       O808   2.229       .  S
In800       O809   2.245       .  S
In800       O812   2.251       .  S
C801        O807   1.265       .  A
C801        O809   1.254       .  A
C801        C969   1.445       .  S
O802        C810   1.266       .  A
O803        C810   1.260       .  A
C804        O811   1.257       .  A
C804        O805   1.259       .  A
C804       C1268   1.481   1_455  S
C806        O808   1.257       .  A
C806        O812   1.259       .  A
C806       C1077   1.464       .  S
C810        C974   1.474       .  S
C813        C814   1.545       .  S
C813        C819   1.531       .  S
C813        C817   1.530       .  S
C813        C977   1.469       .  S
C814        H821   1.086       .  S
C814        C815   1.375       .  D
C815        C816   1.537       .  S
C815        C972   1.450       .  S
C816        C820   1.534       .  S
C816        C818   1.534       .  S
C816        H822   1.112       .  S
C817        H823   1.087       .  S
C817        C818   1.359       .  D
C818        C963   1.465       .  S
C819        H824   1.087       .  S
C819        C820   1.361       .  D
C820        C950   1.471       .  S
C825        C826   1.528       .  S
C825        C831   1.532       .  S
C825        C829   1.541       .  S
C825        C947   1.466       .  S
C826        H833   1.087       .  S
C826        C827   1.360       .  D
C827        C953   1.465       .  S
C827        C828   1.534       .  S
C828        C832   1.538       .  S
C828        C830   1.535       .  S
C828        H834   1.110       .  S
C829        H835   1.086       .  S
C829        C830   1.372       .  D
C830        C979   1.447       .  S
C831        H836   1.086       .  S
C831        C832   1.366       .  D
C832        C941   1.482       .  S
C837        C838   1.532       .  S
C837        C843   1.531       .  S
C837        C841   1.548       .  S
C837        C970   1.477       .  S
C838        H845   1.087       .  S
C838        C839   1.362       .  D
C839        C926   1.466       .  S
C839        C840   1.532       .  S
C840        C844   1.540       .  S
C840        C842   1.535       .  S
C840        H846   1.110       .  S
C841        H847   1.086       .  S
C841        C842   1.376       .  D
C842        C935   1.455       .  S
C843        H848   1.086       .  S
C843        C844   1.365       .  D
C844        C960   1.484       .  S
In849       O851   2.276       .  S
In849       O852   2.237       .  S
In849       O860   2.261       .  S
In849       O854   2.262       .  S
In849       O856   2.294       .  S
In849       O857   2.230       .  S
In849       O858   2.247       .  S
In849       O861   2.244       .  S
C850        O856   1.267       .  A
C850        O858   1.254       .  A
C850        C936   1.450       .  S
O851        C859   1.264       .  A
O852        C859   1.258       .  A
C853        O860   1.259       .  A
C853        O854   1.259       .  A
C853       C1191   1.481       .  S
C855        O857   1.260       .  A
C855        O861   1.258       .  A
C855       C1104   1.463       .  S
C859        C921   1.481       .  S
In862       O864   2.255       .  S
In862       O865   2.230       .  S
In862       O873   2.271       .  S
In862       O867   2.245       .  S
In862       O869   2.260       .  S
In862       O870   2.241       .  S
In862       O871   2.234       .  S
In862       O874   2.262       .  S
C863        O869   1.264       .  A
C863        O871   1.256       .  A
C863        C919   1.436       .  S
O864        C872   1.259       .  A
O865        C872   1.257       .  A
C866        O873   1.262       .  A
C866        O867   1.256       .  A
C866       C1434   1.477       .  S
C868        O870   1.260       .  A
C868        O874   1.262       .  A
C868        C922   1.477       .  S
C872       C1008   1.465       .  S
In875       O877   2.269       .  S
In875       O878   2.231       .  S
In875       O886   2.263       .  S
In875       O880   2.248   1_565  S
In875       O882   2.261       .  S
In875       O883   2.237       .  S
In875       O884   2.232       .  S
In875       O887   2.247   1_565  S
C876        O882   1.264       .  A
C876        O884   1.255       .  A
C876        C948   1.434       .  S
O877        C885   1.264       .  A
O878        C885   1.260       .  A
C879        O886   1.260       .  A
C879        O880   1.256   1_565  A
C879       C1251   1.475   1_565  S
C881        O883   1.259   1_545  A
C881        O887   1.258       .  A
C881       C1166   1.465       .  S
C885        C915   1.475       .  S
In888       O890   2.248       .  S
In888       O891   2.231       .  S
In888       O899   2.266       .  S
In888       O893   2.244       .  S
In888       O895   2.269       .  S
In888       O896   2.233       .  S
In888       O897   2.232       .  S
In888       O900   2.271       .  S
C889        O895   1.265       .  A
C889        O897   1.255       .  A
C889        C914   1.437       .  S
O890        C898   1.258       .  A
O891        C898   1.259       .  A
C892        O899   1.261       .  A
C892        O893   1.256       .  A
C892       C1524   1.475       .  S
C894        O896   1.260       .  A
C894        O900   1.263       .  A
C894        C916   1.480       .  S
C898       C1030   1.465       .  S
C901        C902   1.542       .  S
C901        C907   1.533       .  S
C901        C905   1.533       .  S
C901        C920   1.469       .  S
C902        H909   1.086       .  S
C902        C903   1.369       .  D
C903        C904   1.528       .  S
C903        C913   1.442       .  S
C904        C908   1.534       .  S
C904        C906   1.536       .  S
C904        H910   1.110       .  S
C905        H911   1.086       .  S
C905        C906   1.367       .  D
C906        C938   1.477       .  S
C907        H912   1.087       .  S
C907        C908   1.363       .  D
C908        C929   1.478       .  S
C913        C914   1.207       .  T
C915        H917   1.087       .  S
C915        C916   1.345       .  D
C916        H918   1.086       .  S
C919        C920   1.206       .  T
C921        H923   1.086       .  S
C921        C922   1.347       .  D
C922        H924   1.087       .  S
C925        C926   1.399       .  A
C925        C930   1.396       .  A
C925        H931   1.083       .  S
C926        C927   1.400       .  A
C927        C928   1.397       .  A
C927        H932   1.083       .  S
C928        C929   1.405       .  A
C928        H933   1.083       .  S
C929        C930   1.404       .  A
C930        H934   1.083       .  S
C935        C936   1.215       .  T
C937        C938   1.403       .  A
C937        C942   1.397       .  A
C937        H943   1.083       .  S
C938        C939   1.403       .  A
C939        C940   1.393       .  A
C939        H944   1.083       .  S
C940        C941   1.405       .  A
C940        H945   1.082       .  S
C941        C942   1.405       .  A
C942        H946   1.082       .  S
C947        C948   1.205       .  T
C949        C950   1.402       .  A
C949        C954   1.396       .  A
C949        H955   1.082       .  S
C950        C951   1.403       .  A
C951        C952   1.395       .  A
C951        H956   1.083       .  S
C952        C953   1.400       .  A
C952        H957   1.083       .  S
C953        C954   1.400       .  A
C954        H958   1.083       .  S
C959        C960   1.409       .  A
C959        C964   1.397       .  A
C959        H965   1.082       .  S
C960        C961   1.405       .  A
C961        C962   1.395       .  A
C961        H966   1.081       .  S
C962        C963   1.398       .  A
C962        H967   1.083       .  S
C963        C964   1.398       .  A
C964        H968   1.083       .  S
C969        C970   1.212       .  T
C971        C972   1.211       .  T
C973        H975   1.086       .  S
C973        C974   1.344       .  D
C974        H976   1.087       .  S
C977        C978   1.208       .  T
C979        C980   1.210       .  T
C981        H983   1.087       .  S
C981        C982   1.343       .  D
C982        H984   1.086       .  S
C985        C986   1.210       .  T
C987        H989   1.087       .  S
C987        C988   1.342   1_556  D
C988        H990   1.087       .  S
C991        H993   1.086       .  S
C991        C992   1.345       .  D
C992        H994   1.087       .  S
C995        C996   1.400       .  A
C995       C1000   1.396       .  A
C995       H1001   1.083       .  S
C996        C997   1.402       .  A
C997        C998   1.391       .  A
C997       H1002   1.083       .  S
C998        C999   1.403       .  A
C998       H1003   1.083       .  S
C999       C1000   1.403       .  A
C1000      H1004   1.072       .  S
C1005      C1006   1.212       .  T
C1007      H1009   1.087       .  S
C1007      C1008   1.342       .  D
C1008      H1010   1.087       .  S
C1011      C1012   1.211       .  T
C1013      H1015   1.087       .  S
C1013      C1014   1.343       .  D
C1014      H1016   1.086       .  S
C1017      C1018   1.404       .  A
C1017      C1022   1.394       .  A
C1017      H1023   1.082       .  S
C1018      C1019   1.403       .  A
C1019      C1020   1.396       .  A
C1019      H1024   1.081       .  S
C1020      C1021   1.404       .  A
C1020      H1025   1.073       .  S
C1021      C1022   1.406       .  A
C1022      H1026   1.082       .  S
C1027      C1028   1.208       .  T
C1029      H1031   1.087       .  S
C1029      C1030   1.340       .  D
C1030      H1032   1.087       .  S
C1033      C1034   1.206       .  T
C1035      H1037   1.086       .  S
C1035      C1036   1.345       .  D
C1036      H1038   1.087       .  S
C1039      C1040   1.405       .  A
C1039      C1044   1.396       .  A
C1039      H1045   1.082       .  S
C1040      C1041   1.407       .  A
C1041      C1042   1.397       .  A
C1041      H1046   1.082       .  S
C1042      C1043   1.403       .  A
C1042      H1047   1.083       .  S
C1043      C1044   1.404       .  A
C1044      H1048   1.083       .  S
C1049      C1050   1.399       .  A
C1049      C1054   1.392       .  A
C1049      H1055   1.083       .  S
C1050      C1051   1.399       .  A
C1051      C1052   1.395       .  A
C1051      H1056   1.083       .  S
C1052      C1053   1.403       .  A
C1052      H1057   1.083       .  S
C1053      C1054   1.402       .  A
C1054      H1058   1.083       .  S
C1059      C1060   1.209       .  T
C1061      C1062   1.205       .  T
C1063      H1065   1.087       .  S
C1063      C1064   1.339   1_556  D
C1064      H1066   1.087       .  S
C1067      C1068   1.212       .  T
C1069      H1071   1.086       .  S
C1069      C1070   1.341       .  D
C1070      H1072   1.087       .  S
C1073      H1075   1.087       .  S
C1073      C1074   1.344   1_556  D
C1074      H1076   1.087       .  S
C1077      H1079   1.087       .  S
C1077      C1078   1.341       .  D
C1078      H1080   1.087       .  S
C1081      C1082   1.207       .  T
C1083      H1085   1.087       .  S
C1083      C1084   1.344       .  D
C1084      H1086   1.086       .  S
C1087      C1088   1.405       .  A
C1087      C1092   1.396       .  A
C1087      H1093   1.083       .  S
C1088      C1089   1.401       .  A
C1089      C1090   1.390       .  A
C1089      H1094   1.082       .  S
C1090      C1091   1.405       .  A
C1090      H1095   1.082       .  S
C1091      C1092   1.404       .  A
C1092      H1096   1.082       .  S
C1097      C1098   1.213       .  T
C1099      H1101   1.087       .  S
C1099      C1100   1.344       .  D
C1100      H1102   1.087       .  S
C1103      H1105   1.087       .  S
C1103      C1104   1.339       .  D
C1104      H1106   1.087       .  S
C1107      C1108   1.206       .  T
C1109      H1111   1.086       .  S
C1109      C1110   1.343       .  D
C1110      H1112   1.087       .  S
C1113      C1114   1.401       .  A
C1113      C1118   1.397       .  A
C1113      H1119   1.083       .  S
C1114      C1115   1.400       .  A
C1115      C1116   1.397       .  A
C1115      H1120   1.083       .  S
C1116      C1117   1.405       .  A
C1116      H1121   1.083       .  S
C1117      C1118   1.404       .  A
C1118      H1122   1.083       .  S
C1123      C1124   1.209       .  T
C1125      H1127   1.087       .  S
C1125      C1126   1.345       .  D
C1126      H1128   1.087   1_554  S
C1129      H1131   1.087       .  S
C1129      C1130   1.340       .  D
C1130      H1132   1.087   1_545  S
C1133      C1134   1.210       .  T
C1135      H1137   1.087       .  S
C1135      C1136   1.343       .  D
C1136      H1138   1.086       .  S
C1139      C1140   1.404       .  A
C1139      C1144   1.392       .  A
C1139      H1145   1.083       .  S
C1140      C1141   1.401       .  A
C1141      C1142   1.397       .  A
C1141      H1146   1.077       .  S
C1142      C1143   1.403       .  A
C1142      H1147   1.083       .  S
C1143      C1144   1.402       .  A
C1144      H1148   1.083       .  S
C1149      C1150   1.402       .  A
C1149      C1154   1.395       .  A
C1149      H1155   1.081       .  S
C1150      C1151   1.404       .  A
C1151      C1152   1.393       .  A
C1151      H1156   1.083       .  S
C1152      C1153   1.406       .  A
C1152      H1157   1.082       .  S
C1153      C1154   1.403       .  A
C1154      H1158   1.076       .  S
C1159      C1160   1.211       .  T
C1161      H1163   1.087       .  S
C1161      C1162   1.343       .  D
C1162      H1164   1.087   1_545  S
C1165      H1167   1.087   1_545  S
C1165      C1166   1.341       .  D
C1166      H1168   1.087       .  S
C1169      C1170   1.209       .  T
C1171      C1172   1.212       .  T
C1173      H1175   1.086       .  S
C1173      C1174   1.343       .  D
C1174      H1176   1.087       .  S
C1177      H1179   1.087   1_545  S
C1177      C1178   1.344       .  D
C1178      H1180   1.087       .  S
C1181      H1183   1.087       .  S
C1181      C1182   1.340       .  D
C1182      H1184   1.087       .  S
C1185      C1186   1.208       .  T
C1187      H1189   1.087       .  S
C1187      C1188   1.343       .  D
C1188      H1190   1.086       .  S
C1191      H1193   1.087       .  S
C1191      C1192   1.346       .  D
C1192      H1194   1.087       .  S
C1195      H1197   1.087       .  S
C1195      C1196   1.340       .  D
C1196      H1198   1.087       .  S
C1199      C1200   1.210       .  T
C1201      H1203   1.086       .  S
C1201      C1202   1.345       .  D
C1202      H1204   1.087       .  S
C1205      C1206   1.404       .  A
C1205      C1210   1.393       .  A
C1205      H1211   1.083       .  S
C1206      C1207   1.403       .  A
C1207      C1208   1.396       .  A
C1207      H1212   1.083       .  S
C1208      C1209   1.404       .  A
C1208      H1213   1.083       .  S
C1209      C1210   1.403       .  A
C1210      H1214   1.083       .  S
C1215      C1216   1.209       .  T
C1217      C1218   1.408       .  A
C1217      C1222   1.399       .  A
C1217      H1223   1.082       .  S
C1218      C1219   1.403       .  A
C1219      C1220   1.394       .  A
C1219      H1224   1.082       .  S
C1220      C1221   1.404       .  A
C1220      H1225   1.083       .  S
C1221      C1222   1.403       .  A
C1222      H1226   1.083       .  S
C1227      C1228   1.211       .  T
C1229      C1230   1.402       .  A
C1229      C1234   1.391       .  A
C1229      H1235   1.083       .  S
C1230      C1231   1.405       .  A
C1231      C1232   1.396       .  A
C1231      H1236   1.083       .  S
C1232      C1233   1.401       .  A
C1232      H1237   1.083       .  S
C1233      C1234   1.403       .  A
C1234      H1238   1.083       .  S
C1239      C1240   1.405       .  A
C1239      C1244   1.396       .  A
C1239      H1245   1.083       .  S
C1240      C1241   1.401       .  A
C1241      C1242   1.391       .  A
C1241      H1246   1.082       .  S
C1242      C1243   1.406       .  A
C1242      H1247   1.082       .  S
C1243      C1244   1.404       .  A
C1244      H1248   1.082       .  S
C1249      C1250   1.208       .  T
C1251      H1253   1.087       .  S
C1251      C1252   1.343   1_455  D
C1252      H1254   1.087   1_545  S
C1255      H1257   1.087       .  S
C1255      C1256   1.341   1_455  D
C1256      H1258   1.087       .  S
C1259      C1260   1.211       .  T
C1261      H1263   1.087       .  S
C1261      C1262   1.343       .  D
C1262      H1264   1.086       .  S
C1265      C1266   1.210       .  T
C1267      H1269   1.087   1_655  S
C1267      C1268   1.345       .  D
C1268      H1270   1.087       .  S
C1271      H1273   1.087   1_455  S
C1271      C1272   1.341       .  D
C1272      H1274   1.087       .  S
C1275      C1276   1.209       .  T
C1277      H1279   1.086       .  S
C1277      C1278   1.345       .  D
C1278      H1280   1.087       .  S
C1281      H1283   1.087   1_455  S
C1281      C1282   1.344   1_556  D
C1282      H1284   1.087       .  S
C1285      H1287   1.087       .  S
C1285      C1286   1.342   1_556  D
C1286      H1288   1.087       .  S
C1289      H1291   1.087       .  S
C1289      C1290   1.343   1_655  D
C1290      H1292   1.087       .  S
C1293      C1294   1.208       .  T
C1295      H1297   1.087       .  S
C1295      C1296   1.344       .  D
C1296      H1298   1.086       .  S
C1299      C1300   1.403       .  A
C1299      C1304   1.390       .  A
C1299      H1305   1.083       .  S
C1300      C1301   1.404       .  A
C1301      C1302   1.398       .  A
C1301      H1306   1.083       .  S
C1302      C1303   1.404       .  A
C1302      H1307   1.083       .  S
C1303      C1304   1.402       .  A
C1304      H1308   1.083       .  S
C1309      C1310   1.208       .  T
C1311      H1313   1.087       .  S
C1311      C1312   1.343       .  D
C1312      H1314   1.087       .  S
C1315      H1317   1.087       .  S
C1315      C1316   1.341       .  D
C1316      H1318   1.087       .  S
C1319      H1321   1.087       .  S
C1319      C1320   1.345       .  D
C1320      H1322   1.087       .  S
C1323      C1324   1.211       .  T
C1325      H1327   1.087       .  S
C1325      C1326   1.343       .  D
C1326      H1328   1.086       .  S
C1329      C1330   1.402       .  A
C1329      C1334   1.393       .  A
C1329      H1335   1.082       .  S
C1330      C1331   1.404       .  A
C1331      C1332   1.393       .  A
C1331      H1336   1.082       .  S
C1332      C1333   1.403       .  A
C1332      H1337   1.082       .  S
C1333      C1334   1.405       .  A
C1334      H1338   1.082       .  S
C1339      C1340   1.205       .  T
C1341      H1343   1.086   1_455  S
C1341      C1342   1.346   1_565  D
C1342      H1344   1.087       .  S
C1345      H1347   1.087       .  S
C1345      C1346   1.345   1_655  D
C1346      H1348   1.087       .  S
C1349      H1351   1.087       .  S
C1349      C1350   1.341       .  D
C1350      H1352   1.087       .  S
C1353      C1354   1.210       .  T
C1355      H1357   1.087       .  S
C1355      C1356   1.344       .  D
C1356      H1358   1.086       .  S
C1359      C1360   1.405       .  A
C1359      C1364   1.402       .  A
C1359      H1365   1.083       .  S
C1360      C1361   1.401       .  A
C1361      C1362   1.388       .  A
C1361      H1366   1.083       .  S
C1362      C1363   1.403       .  A
C1362      H1367   1.083       .  S
C1363      C1364   1.404       .  A
C1364      H1368   1.083       .  S
C1369      C1370   1.403       .  A
C1369      C1374   1.397       .  A
C1369      H1375   1.083       .  S
C1370      C1371   1.404       .  A
C1371      C1372   1.392       .  A
C1371      H1376   1.083       .  S
C1372      C1373   1.402       .  A
C1372      H1377   1.082       .  S
C1373      C1374   1.406       .  A
C1374      H1378   1.083       .  S
C1379      C1380   1.212       .  T
C1381      H1383   1.087       .  S
C1381      C1382   1.345   1_554  D
C1382      H1384   1.087       .  S
C1385      H1387   1.087   1_556  S
C1385      C1386   1.340       .  D
C1386      H1388   1.087       .  S
C1389      C1390   1.209       .  T
C1391      H1393   1.086       .  S
C1391      C1392   1.344   1_545  D
C1392      H1394   1.087       .  S
C1395      C1396   1.212       .  T
C1397      H1399   1.086       .  S
C1397      C1398   1.342       .  D
C1398      H1400   1.087       .  S
C1401      H1403   1.087   1_556  S
C1401      C1402   1.344       .  D
C1402      H1404   1.087       .  S
C1405      H1407   1.087       .  S
C1405      C1406   1.341       .  D
C1406      H1408   1.087       .  S
C1409      C1410   1.207       .  T
C1411      H1413   1.087       .  S
C1411      C1412   1.347   1_554  D
C1412      H1414   1.086   1_455  S
C1415      H1417   1.087       .  S
C1415      C1416   1.341       .  D
C1416      H1418   1.087   1_455  S
C1419      H1421   1.087       .  S
C1419      C1420   1.342       .  D
C1420      H1422   1.086       .  S
C1423      H1425   1.087       .  S
C1423      C1424   1.343       .  D
C1424      H1426   1.087       .  S
C1427      H1429   1.087       .  S
C1427      C1428   1.341       .  D
C1428      H1430   1.087       .  S
C1431      C1432   1.208       .  T
C1433      H1435   1.087       .  S
C1433      C1434   1.343       .  D
C1434      H1436   1.087       .  S
C1437      H1439   1.087       .  S
C1437      C1438   1.343       .  D
C1438      H1440   1.087       .  S
C1441      H1443   1.087       .  S
C1441      C1442   1.341       .  D
C1442      H1444   1.086       .  S
C1445      C1446   1.403       .  A
C1445      C1450   1.388       .  A
C1445      H1451   1.082       .  S
C1446      C1447   1.406       .  A
C1447      C1448   1.404       .  A
C1447      H1452   1.082       .  S
C1448      C1449   1.405       .  A
C1448      H1453   1.083       .  S
C1449      C1450   1.403       .  A
C1450      H1454   1.083       .  S
C1455      C1456   1.210       .  T
C1457      C1458   1.399       .  A
C1457      C1462   1.395       .  A
C1457      H1463   1.083       .  S
C1458      C1459   1.400       .  A
C1459      C1460   1.395       .  A
C1459      H1464   1.083       .  S
C1460      C1461   1.404       .  A
C1460      H1465   1.083       .  S
C1461      C1462   1.405       .  A
C1462      H1466   1.083       .  S
C1467      C1468   1.212       .  T
C1469      C1470   1.399       .  A
C1469      C1474   1.397       .  A
C1469      H1475   1.083       .  S
C1470      C1471   1.398       .  A
C1471      C1472   1.395       .  A
C1471      H1476   1.083       .  S
C1472      C1473   1.405       .  A
C1472      H1477   1.081       .  S
C1473      C1474   1.407       .  A
C1474      H1478   1.083       .  S
C1479      C1480   1.402       .  A
C1479      C1484   1.391       .  A
C1479      H1485   1.083       .  S
C1480      C1481   1.404       .  A
C1481      C1482   1.398       .  A
C1481      H1486   1.082       .  S
C1482      C1483   1.403       .  A
C1482      H1487   1.083       .  S
C1483      C1484   1.405       .  A
C1484      H1488   1.083       .  S
C1489      H1491   1.087       .  S
C1489      C1490   1.344       .  D
C1490      H1492   1.087   1_556  S
C1493      H1495   1.087       .  S
C1493      C1494   1.340       .  D
C1494      H1496   1.087       .  S
C1497      C1498   1.210       .  T
C1499      H1501   1.086       .  S
C1499      C1500   1.346   1_556  D
C1500      H1502   1.087       .  S
C1503      H1505   1.087       .  S
C1503      C1504   1.341       .  D
C1504      H1506   1.087   1_545  S
C1507      C1508   1.211       .  T
C1509      H1511   1.087       .  S
C1509      C1510   1.346       .  D
C1510      H1512   1.086       .  S
C1513      H1515   1.087       .  S
C1513      C1514   1.344   1_565  D
C1514      H1516   1.087       .  S
C1517      H1519   1.087   1_545  S
C1517      C1518   1.340       .  D
C1518      H1520   1.087       .  S
C1521      C1522   1.209       .  T
C1523      H1525   1.087       .  S
C1523      C1524   1.342       .  D
C1524      H1526   1.087       .  S
C1527      H1529   1.087       .  S
C1527      C1528   1.341       .  D
C1528      H1530   1.087   1_455  S
C1531      C1532   1.210       .  T
C1533      H1535   1.087       .  S
C1533      C1534   1.342       .  D
C1534      H1536   1.086       .  S
