geometry optimzed in LAMMPS
_audit_creation_date              2020-11-30 
_audit_creation_method            'lammps2cif' 
_symmetry_space_group_name_H-M    'P1' 
_symmetry_Int_Tables_number       1 
_symmetry_cell_setting            triclinic 
loop_ 
_symmetry_equiv_pos_as_xyz 
  x,y,z 
_cell_length_a                    41.18868587 
_cell_length_b                    41.214626415895516 
_cell_length_c                    31.33607142083136 
_cell_angle_alpha                 90.00013687301957 
_cell_angle_beta                  89.97840592471782 
_cell_angle_gamma                 120.0358613889376 
loop_ 
_atom_site_label 
_atom_site_type_symbol 
_atom_site_fract_x 
_atom_site_fract_y 
_atom_site_fract_z 
_atom_site_charge 
C1          C  0.40415007  0.30960127  0.33297008     0.02400
C2          C  0.09312574  0.40403038  0.33304807     0.02400
C3          C  0.18715495  0.09283632  0.33308059     0.02400
C4          C  0.09305848  0.18749896  0.99970917     0.02400
C5          C  0.40408453  0.09307069  0.33297450     0.02400
C6          C  0.31005444  0.40426287  0.33293637     0.02400
Fe7        Fe  0.10986693  0.30415105  0.16637787     1.65800
Fe8        Fe  0.19330761  0.30417811  0.16632096     1.73200
Fe9        Fe  0.19333521  0.38757232  0.16632808     1.54400
O10         O  0.16051311  0.39109594  0.11880242    -0.76800
O11         O  0.22965525  0.33696947  0.21386806    -0.75100
O12         O  0.10633668  0.33692384  0.11881904    -0.79300
O13         O  0.10634410  0.33694422  0.21392265    -0.74200
O14         O  0.22966647  0.39111661  0.11874181    -0.75900
O15         O  0.16048055  0.26782924  0.21388081    -0.78700
C16         C  0.12802252  0.36943248  0.22858039     1.02100
C17         C  0.12800201  0.36942183  0.10415736     1.09500
O18         O  0.16550423  0.33196762  0.16634233    -1.07700
O19         O  0.16049147  0.26785650  0.11876745    -0.70100
O20         O  0.10631068  0.26781914  0.11883738    -0.73600
O21         O  0.16054113  0.39109536  0.21391728    -0.74300
C22         C  0.12797237  0.25700249  0.10414768     1.01000
O23         O  0.10632530  0.26784247  0.21394085    -0.72200
O24         O  0.22967227  0.33699087  0.11876251    -0.77400
C25         C  0.24051812  0.36946511  0.22850829     1.03600
C26         C  0.24051068  0.36947455  0.10409008     1.09500
O27         O  0.22969511  0.39111846  0.21384732    -0.73100
C28         C  0.12797841  0.25700008  0.22857004     1.07800
Fe29       Fe  0.38734250  0.19295314  0.16630674     1.65800
Fe30       Fe  0.30387806  0.10952811  0.16636254     1.73200
Fe31       Fe  0.30389797  0.19291846  0.16635597     1.54400
O32         O  0.33673127  0.22926936  0.21388141    -0.76800
O33         O  0.26753991  0.10597746  0.11881499    -0.75100
O34         O  0.39089130  0.22926527  0.21386542    -0.79300
O35         O  0.39088459  0.22927845  0.11876239    -0.74200
O36         O  0.26755732  0.16012767  0.21394166    -0.75900
O37         O  0.33669392  0.10600024  0.11880234    -0.78700
C38         C  0.36921893  0.24009430  0.10410470     1.02100
C39         C  0.36923859  0.24010385  0.22852692     1.09500
O40         O  0.33170521  0.16513278  0.16634173    -1.07700
O41         O  0.33668227  0.10601619  0.21391691    -0.70100
O42         O  0.39087939  0.16016763  0.21384743    -0.73600
O43         O  0.33670395  0.22924100  0.11876785    -0.74300
C44         C  0.36920494  0.12768248  0.22853688     1.01000
O45         O  0.39086562  0.16017662  0.11874339    -0.72200
O46         O  0.26752208  0.10598141  0.21392080    -0.77400
C47         C  0.25669176  0.12761716  0.10417501     1.03600
C48         C  0.25669828  0.12763354  0.22859321     1.09500
O49         O  0.26752928  0.16010120  0.11883643    -0.73100
C50         C  0.36919992  0.12767449  0.10411375     1.07800
C51         C  0.26590107  0.38216981  0.06855654    -0.08400
C52         C  0.28623252  0.39233959  0.03776501    -0.09900
C53         C  0.26591179  0.38216256  0.26401537    -0.08400
C54         C  0.28624248  0.39233691  0.29478846    -0.09900
C55         C  0.38191620  0.11501922  0.26404968    -0.08400
C56         C  0.39212372  0.10490718  0.29482352    -0.09900
C57         C  0.38189955  0.11499974  0.06858910    -0.08400
C58         C  0.39210355  0.10488612  0.03780398    -0.09900
C59         C  0.33360227  0.44516558  0.33292833    -0.13600
C60         C  0.35172851  0.47892203  0.33293538     0.10400
C61         C  0.37138303  0.01844139  0.33295223     0.12300
C62         C  0.38685156  0.05218665  0.33296615    -0.14500
C63         C  0.11525048  0.23162404  0.06863408    -0.08400
C64         C  0.10503348  0.21130144  0.03785952    -0.09900
C65         C  0.10505462  0.21130095  0.29488085    -0.08400
C66         C  0.11526849  0.23162189  0.26409533    -0.09900
C67         C  0.44501981  0.11053456  0.33297433    -0.13600
C68         C  0.47879571  0.12614873  0.33299289     0.10400
C69         C  0.01834233  0.14590228  0.33302304     0.12300
C70         C  0.05212035  0.16403774  0.33304192    -0.14500
C71         C  0.21096732  0.10475136  0.03789490    -0.08400
C72         C  0.23129820  0.11491921  0.06866783    -0.09900
C73         C  0.21097646  0.10476346  0.29491830    -0.08400
C74         C  0.23130777  0.11493655  0.26412661    -0.09900
C75         C  0.16357286  0.11014291  0.33308901    -0.13600
C76         C  0.14541886  0.12573599  0.99974875     0.10400
C77         C  0.12574080  0.14556861  0.99973179     0.12300
C78         C  0.11026809  0.16383464  0.99971773    -0.14500
C79         C  0.11532110  0.38210389  0.26410652    -0.07800
C80         C  0.10511286  0.39221536  0.29488988    -0.09900
C81         C  0.10508781  0.39220088  0.03787030    -0.08400
C82         C  0.11529456  0.38209032  0.06864594    -0.09900
C83         C  0.16360160  0.05193433  0.33308004    -0.13600
C84         C  0.14547256  0.01817801  0.33307157     0.10400
C85         C  0.12581788  0.47865874  0.33305870     0.12300
C86         C  0.11035225  0.44491364  0.33305041    -0.14500
C87         C  0.39217291  0.28580413  0.29481547    -0.08400
C88         C  0.38195634  0.26548362  0.26403918    -0.09900
C89         C  0.39214864  0.28579390  0.03779409    -0.08400
C90         C  0.38193092  0.26547103  0.06857804    -0.09900
C91         C  0.05218980  0.38656002  0.33304457    -0.13600
C92         C  0.01841366  0.37094275  0.33302432     0.10400
C93         C  0.47886703  0.35118924  0.33299312     0.12300
C94         C  0.44508879  0.33305666  0.33297307    -0.14500
C95         C  0.38694688  0.33327128  0.33296805    -0.13600
C96         C  0.37147705  0.35153998  0.33295957     0.10400
C97         C  0.35179891  0.37137243  0.33294612     0.12300
C98         C  0.33364204  0.38696251  0.33293721    -0.14500
C99         C  0.40415006  0.30960124  0.66630344     0.02400
C100        C  0.09312578  0.40403039  0.66638143     0.02400
C101        C  0.18715495  0.09283631  0.66641393     0.02400
C102        C  0.09305843  0.18749894  0.33304247     0.02400
C103        C  0.40408456  0.09307074  0.66630779     0.02400
C104        C  0.31005441  0.40426283  0.66626970     0.02400
Fe105      Fe  0.10986692  0.30415102  0.49971117     1.65800
Fe106      Fe  0.19330761  0.30417808  0.49965430     1.73200
Fe107      Fe  0.19333520  0.38757227  0.49966143     1.54400
O108        O  0.16051313  0.39109597  0.45213580    -0.76800
O109        O  0.22965528  0.33696946  0.54720135    -0.75100
O110        O  0.10633672  0.33692386  0.45215231    -0.79300
O111        O  0.10634408  0.33694415  0.54725601    -0.74200
O112        O  0.22966640  0.39111655  0.45207518    -0.75900
O113        O  0.16048059  0.26782928  0.54721420    -0.78700
C114        C  0.12802252  0.36943241  0.56191375     1.02100
C115        C  0.12800202  0.36942182  0.43749067     1.09500
O116        O  0.16550421  0.33196758  0.49967562    -1.07700
O117        O  0.16049147  0.26785639  0.45210089    -0.70100
O118        O  0.10631074  0.26781914  0.45217068    -0.73600
O119        O  0.16054112  0.39109528  0.54725068    -0.74300
C120        C  0.12797236  0.25700241  0.43748106     1.01000
O121        O  0.10632531  0.26784243  0.54727414    -0.72200
O122        O  0.22967225  0.33699082  0.45209580    -0.77400
C123        C  0.24051813  0.36946508  0.56184158     1.03600
C124        C  0.24051068  0.36947446  0.43742338     1.09500
O125        O  0.22969515  0.39111844  0.54718066    -0.73100
C126        C  0.12797842  0.25700008  0.56190337     1.07800
Fe127      Fe  0.38734251  0.19295317  0.49964009     1.65800
Fe128      Fe  0.30387808  0.10952813  0.49969587     1.73200
Fe129      Fe  0.30389794  0.19291845  0.49968924     1.54400
O130        O  0.33673117  0.22926936  0.54721467    -0.76800
O131        O  0.26753988  0.10597748  0.45214832    -0.75100
O132        O  0.39089117  0.22926520  0.54719886    -0.79300
O133        O  0.39088458  0.22927857  0.45209576    -0.74200
O134        O  0.26755726  0.16012768  0.54727496    -0.75900
O135        O  0.33669392  0.10600031  0.45213562    -0.78700
C136        C  0.36921894  0.24009433  0.43743803     1.02100
C137        C  0.36923852  0.24010381  0.56186029     1.09500
O138        O  0.33170521  0.16513280  0.49967508    -1.07700
O139        O  0.33668231  0.10601618  0.54725021    -0.70100
O140        O  0.39087942  0.16016764  0.54718072    -0.73600
O141        O  0.33670387  0.22924098  0.45210105    -0.74300
C142        C  0.36920499  0.12768247  0.56187016     1.01000
O143        O  0.39086564  0.16017669  0.45207666    -0.72200
O144        O  0.26752211  0.10598146  0.54725416    -0.77400
C145        C  0.25669173  0.12761715  0.43750832     1.03600
C146        C  0.25669827  0.12763358  0.56192654     1.09500
O147        O  0.26752924  0.16010120  0.45216973    -0.73100
C148        C  0.36919996  0.12767458  0.43744700     1.07800
C149        C  0.26590105  0.38216980  0.40188993    -0.08400
C150        C  0.28623253  0.39233959  0.37109830    -0.09900
C151        C  0.26591181  0.38216250  0.59734872    -0.08400
C152        C  0.28624247  0.39233685  0.62812176    -0.09900
C153        C  0.38191627  0.11501925  0.59738293    -0.08400
C154        C  0.39212379  0.10490724  0.62815681    -0.09900
C155        C  0.38189958  0.11499980  0.40192243    -0.08400
C156        C  0.39210361  0.10488614  0.37113733    -0.09900
C157        C  0.33360224  0.44516545  0.66626167    -0.13600
C158        C  0.35172855  0.47892199  0.66626871     0.10400
C159        C  0.37138308  0.01844144  0.66628559     0.12300
C160        C  0.38685159  0.05218670  0.66629942    -0.14500
C161        C  0.11525048  0.23162396  0.40196747    -0.08400
C162        C  0.10503344  0.21130140  0.37119283    -0.09900
C163        C  0.10505462  0.21130097  0.62821419    -0.08400
C164        C  0.11526849  0.23162189  0.59742868    -0.09900
C165        C  0.44501984  0.11053459  0.66630763    -0.13600
C166        C  0.47879575  0.12614872  0.66632622     0.10400
C167        C  0.01834233  0.14590227  0.66635636     0.12300
C168        C  0.05212040  0.16403778  0.66637525    -0.14500
C169        C  0.21096732  0.10475136  0.37122816    -0.08400
C170        C  0.23129818  0.11491921  0.40200111    -0.09900
C171        C  0.21097649  0.10476345  0.62825165    -0.08400
C172        C  0.23130779  0.11493657  0.59745998    -0.09900
C173        C  0.16357285  0.11014282  0.66642233    -0.13600
C174        C  0.14541885  0.12573594  0.33308203     0.10400
C175        C  0.12574071  0.14556860  0.33306508     0.12300
C176        C  0.11026804  0.16383455  0.33305103    -0.14500
C177        C  0.11532106  0.38210385  0.59743986    -0.07800
C178        C  0.10511284  0.39221535  0.62822319    -0.09900
C179        C  0.10508783  0.39220095  0.37120367    -0.08400
C180        C  0.11529462  0.38209038  0.40197928    -0.09900
C181        C  0.16360163  0.05193430  0.66641340    -0.13600
C182        C  0.14547258  0.01817800  0.66640498     0.10400
C183        C  0.12581790  0.47865876  0.66639210     0.12300
C184        C  0.11035226  0.44491364  0.66638377    -0.14500
C185        C  0.39217287  0.28580412  0.62814884    -0.08400
C186        C  0.38195621  0.26548358  0.59737254    -0.09900
C187        C  0.39214867  0.28579393  0.37112743    -0.08400
C188        C  0.38193095  0.26547111  0.40191130    -0.09900
C189        C  0.05218976  0.38656000  0.66637795    -0.13600
C190        C  0.01841378  0.37094287  0.66635763     0.10400
C191        C  0.47886701  0.35118920  0.66632639     0.12300
C192        C  0.44508881  0.33305662  0.66630638    -0.14500
C193        C  0.38694687  0.33327129  0.66630143    -0.13600
C194        C  0.37147705  0.35153993  0.66629297     0.10400
C195        C  0.35179885  0.37137241  0.66627958     0.12300
C196        C  0.33364200  0.38696244  0.66627062    -0.14500
C197        C  0.40415002  0.30960120  0.99963676     0.02400
C198        C  0.09312571  0.40403034  0.99971470     0.02400
C199        C  0.18715497  0.09283633  0.99974732     0.02400
C200        C  0.09305846  0.18749894  0.66637582     0.02400
C201        C  0.40408455  0.09307071  0.99964114     0.02400
C202        C  0.31005445  0.40426284  0.99960302     0.02400
Fe203      Fe  0.10986695  0.30415104  0.83304452     1.65800
Fe204      Fe  0.19330762  0.30417810  0.83298766     1.73200
Fe205      Fe  0.19333522  0.38757228  0.83299475     1.54400
O206        O  0.16051320  0.39109597  0.78546909    -0.76800
O207        O  0.22965527  0.33696950  0.88053473    -0.75100
O208        O  0.10633675  0.33692390  0.78548570    -0.79300
O209        O  0.10634415  0.33694420  0.88058938    -0.74200
O210        O  0.22966644  0.39111656  0.78540851    -0.75900
O211        O  0.16048062  0.26782930  0.88054751    -0.78700
C212        C  0.12802254  0.36943245  0.89524710     1.02100
C213        C  0.12800203  0.36942183  0.77082405     1.09500
O214        O  0.16550422  0.33196760  0.83300896    -1.07700
O215        O  0.16049149  0.26785645  0.78543423    -0.70100
O216        O  0.10631074  0.26781918  0.78550403    -0.73600
O217        O  0.16054116  0.39109536  0.88058394    -0.74300
C218        C  0.12797239  0.25700243  0.77081438     1.01000
O219        O  0.10632534  0.26784245  0.88060748    -0.72200
O220        O  0.22967228  0.33699086  0.78542919    -0.77400
C221        C  0.24051817  0.36946508  0.89517498     1.03600
C222        C  0.24051067  0.36947446  0.77075682     1.09500
O223        O  0.22969515  0.39111849  0.88051396    -0.73100
C224        C  0.12797841  0.25700007  0.89523669     1.07800
Fe225      Fe  0.38734246  0.19295313  0.83297338     1.65800
Fe226      Fe  0.30387804  0.10952811  0.83302917     1.73200
Fe227      Fe  0.30389791  0.19291844  0.83302260     1.54400
O228        O  0.33673120  0.22926935  0.88054801    -0.76800
O229        O  0.26753987  0.10597744  0.78548160    -0.75100
O230        O  0.39089121  0.22926521  0.88053211    -0.79300
O231        O  0.39088455  0.22927847  0.78542900    -0.74200
O232        O  0.26755729  0.16012764  0.88060832    -0.75900
O233        O  0.33669391  0.10600023  0.78546898    -0.78700
C234        C  0.36921888  0.24009427  0.77077132     1.02100
C235        C  0.36923854  0.24010381  0.89519357     1.09500
O236        O  0.33170517  0.16513279  0.83300839    -1.07700
O237        O  0.33668223  0.10601613  0.88058353    -0.70100
O238        O  0.39087934  0.16016758  0.88051405    -0.73600
O239        O  0.33670388  0.22924097  0.78543444    -0.74300
C240        C  0.36920491  0.12768243  0.89520346     1.01000
O241        O  0.39086560  0.16017663  0.78541004    -0.72200
O242        O  0.26752205  0.10598138  0.88058745    -0.77400
C243        C  0.25669169  0.12761712  0.77084167     1.03600
C244        C  0.25669822  0.12763350  0.89525988     1.09500
O245        O  0.26752920  0.16010115  0.78550312    -0.73100
C246        C  0.36919991  0.12767448  0.77078037     1.07800
C247        C  0.26590109  0.38216978  0.73522324    -0.08400
C248        C  0.28623243  0.39233950  0.70443168    -0.09900
C249        C  0.26591177  0.38216251  0.93068204    -0.08400
C250        C  0.28624250  0.39233687  0.96145518    -0.09900
C251        C  0.38191618  0.11501916  0.93071629    -0.08400
C252        C  0.39212375  0.10490721  0.96149011    -0.09900
C253        C  0.38189956  0.11499977  0.73525575    -0.08400
C254        C  0.39210361  0.10488616  0.70447061    -0.09900
C255        C  0.33360231  0.44516553  0.99959495    -0.13600
C256        C  0.35172854  0.47892198  0.99960197     0.10400
C257        C  0.37138304  0.01844138  0.99961883     0.12300
C258        C  0.38685162  0.05218674  0.99963275    -0.14500
C259        C  0.11525051  0.23162400  0.73530085    -0.08400
C260        C  0.10503347  0.21130140  0.70452617    -0.09900
C261        C  0.10505462  0.21130096  0.96154754    -0.08400
C262        C  0.11526849  0.23162186  0.93076195    -0.09900
C263        C  0.44501982  0.11053459  0.99964105    -0.13600
C264        C  0.47879578  0.12614878  0.99965968     0.10400
C265        C  0.01834240  0.14590229  0.99968978     0.12300
C266        C  0.05212037  0.16403774  0.99970866    -0.14500
C267        C  0.21096732  0.10475140  0.70456150    -0.08400
C268        C  0.23129814  0.11491923  0.73533446    -0.09900
C269        C  0.21097647  0.10476346  0.96158503    -0.08400
C270        C  0.23130773  0.11493652  0.93079326    -0.09900
C271        C  0.16357292  0.11014292  0.99975572    -0.13600
C272        C  0.14541874  0.12573587  0.66641536     0.10400
C273        C  0.12574071  0.14556851  0.66639835     0.12300
C274        C  0.11026804  0.16383458  0.66638431    -0.14500
C275        C  0.11532113  0.38210388  0.93077317    -0.07800
C276        C  0.10511282  0.39221538  0.96155650    -0.09900
C277        C  0.10508785  0.39220094  0.70453704    -0.08400
C278        C  0.11529459  0.38209040  0.73531270    -0.09900
C279        C  0.16360159  0.05193433  0.99974680    -0.13600
C280        C  0.14547250  0.01817803  0.99973836     0.10400
C281        C  0.12581791  0.47865872  0.99972541     0.12300
C282        C  0.11035220  0.44491361  0.99971708    -0.14500
C283        C  0.39217289  0.28580410  0.96148213    -0.08400
C284        C  0.38195626  0.26548357  0.93070584    -0.09900
C285        C  0.39214867  0.28579393  0.70446079    -0.08400
C286        C  0.38193089  0.26547106  0.73524466    -0.09900
C287        C  0.05218976  0.38655997  0.99971120    -0.13600
C288        C  0.01841366  0.37094275  0.99969092     0.10400
C289        C  0.47886693  0.35118916  0.99965976     0.12300
C290        C  0.44508883  0.33305664  0.99963973    -0.14500
C291        C  0.38694688  0.33327126  0.99963470    -0.13600
C292        C  0.37147702  0.35153992  0.99962621     0.10400
C293        C  0.35179882  0.37137232  0.99961284     0.12300
C294        C  0.33364199  0.38696244  0.99960394    -0.14500
C295        C  0.40415005  0.80960121  0.33297008     0.02400
C296        C  0.09312571  0.90403034  0.33304806     0.02400
C297        C  0.18715492  0.59283633  0.33308059     0.02400
C298        C  0.09305845  0.68749893  0.99970916     0.02400
C299        C  0.40408459  0.59307077  0.33297449     0.02400
C300        C  0.31005441  0.90426280  0.33293636     0.02400
Fe301      Fe  0.10986692  0.80415101  0.16637785     1.65800
Fe302      Fe  0.19330762  0.80417809  0.16632094     1.73200
Fe303      Fe  0.19333521  0.88757226  0.16632810     1.54400
O304        O  0.16051320  0.89109596  0.11880246    -0.76800
O305        O  0.22965530  0.83696949  0.21386799    -0.75100
O306        O  0.10633675  0.83692388  0.11881900    -0.79300
O307        O  0.10634413  0.83694420  0.21392266    -0.74200
O308        O  0.22966649  0.89111661  0.11874186    -0.75900
O309        O  0.16048061  0.76782926  0.21388082    -0.78700
C310        C  0.12802251  0.86943241  0.22858040     1.02100
C311        C  0.12800201  0.86942179  0.10415735     1.09500
O312        O  0.16550421  0.83196757  0.16634231    -1.07700
O313        O  0.16049150  0.76785646  0.11876750    -0.70100
O314        O  0.10631072  0.76781911  0.11883737    -0.73600
O315        O  0.16054115  0.89109534  0.21391732    -0.74300
C316        C  0.12797237  0.75700244  0.10414772     1.01000
O317        O  0.10632535  0.76784246  0.21394085    -0.72200
O318        O  0.22967227  0.83699087  0.11876244    -0.77400
C319        C  0.24051815  0.86946507  0.22850823     1.03600
C320        C  0.24051071  0.86947451  0.10409008     1.09500
O321        O  0.22969513  0.89111844  0.21384732    -0.73100
C322        C  0.12797844  0.75700010  0.22857000     1.07800
Fe323      Fe  0.38734245  0.69295312  0.16630675     1.65800
Fe324      Fe  0.30387802  0.60952811  0.16636253     1.73200
Fe325      Fe  0.30389791  0.69291845  0.16635595     1.54400
O326        O  0.33673118  0.72926936  0.21388137    -0.76800
O327        O  0.26753983  0.60597741  0.11881499    -0.75100
O328        O  0.39089118  0.72926523  0.21386544    -0.79300
O329        O  0.39088453  0.72927847  0.11876239    -0.74200
O330        O  0.26755728  0.66012766  0.21394164    -0.75900
O331        O  0.33669386  0.60600024  0.11880231    -0.78700
C332        C  0.36921889  0.74009427  0.10410467     1.02100
C333        C  0.36923854  0.74010383  0.22852690     1.09500
O334        O  0.33170516  0.66513279  0.16634173    -1.07700
O335        O  0.33668221  0.60601614  0.21391688    -0.70100
O336        O  0.39087932  0.66016758  0.21384743    -0.73600
O337        O  0.33670385  0.72924096  0.11876777    -0.74300
C338        C  0.36920490  0.62768246  0.22853683     1.01000
O339        O  0.39086557  0.66017661  0.11874340    -0.72200
O340        O  0.26752205  0.60598140  0.21392081    -0.77400
C341        C  0.25669168  0.62761715  0.10417508     1.03600
C342        C  0.25669822  0.62763353  0.22859321     1.09500
O343        O  0.26752919  0.66010113  0.11883647    -0.73100
C344        C  0.36919986  0.62767447  0.10411371     1.07800
C345        C  0.26590112  0.88216984  0.06855655    -0.08400
C346        C  0.28623252  0.89233959  0.03776496    -0.09900
C347        C  0.26591182  0.88216251  0.26401535    -0.08400
C348        C  0.28624247  0.89233682  0.29478843    -0.09900
C349        C  0.38191618  0.61501918  0.26404965    -0.08400
C350        C  0.39212378  0.60490726  0.29482347    -0.09900
C351        C  0.38189949  0.61499974  0.06858910    -0.08400
C352        C  0.39210355  0.60488610  0.03780398    -0.09900
C353        C  0.33360227  0.94516550  0.33292830    -0.13600
C354        C  0.35172849  0.97892194  0.33293535     0.10400
C355        C  0.37138311  0.51844147  0.33295225     0.12300
C356        C  0.38685163  0.55218674  0.33296614    -0.14500
C357        C  0.11525050  0.73162398  0.06863413    -0.08400
C358        C  0.10503346  0.71130141  0.03785954    -0.09900
C359        C  0.10505464  0.71130099  0.29488084    -0.08400
C360        C  0.11526851  0.73162187  0.26409534    -0.09900
C361        C  0.44501986  0.61053462  0.33297436    -0.13600
C362        C  0.47879576  0.62614874  0.33299292     0.10400
C363        C  0.01834238  0.64590231  0.33302304     0.12300
C364        C  0.05212036  0.66403776  0.33304195    -0.14500
C365        C  0.21096730  0.60475137  0.03789491    -0.08400
C366        C  0.23129808  0.61491919  0.06866784    -0.09900
C367        C  0.21097640  0.60476346  0.29491829    -0.08400
C368        C  0.23130770  0.61493655  0.26412656    -0.09900
C369        C  0.16357286  0.61014288  0.33308905    -0.13600
C370        C  0.14541878  0.62573591  0.99974872     0.10400
C371        C  0.12574072  0.64556854  0.99973175     0.12300
C372        C  0.11026804  0.66383457  0.99971771    -0.14500
C373        C  0.11532106  0.88210382  0.26410654    -0.07800
C374        C  0.10511280  0.89221530  0.29488985    -0.09900
C375        C  0.10508784  0.89220089  0.03787032    -0.08400
C376        C  0.11529464  0.88209036  0.06864597    -0.09900
C377        C  0.16360159  0.55193433  0.33308007    -0.13600
C378        C  0.14547249  0.51817802  0.33307159     0.10400
C379        C  0.12581792  0.97865872  0.33305871     0.12300
C380        C  0.11035224  0.94491362  0.33305041    -0.14500
C381        C  0.39217288  0.78580408  0.29481548    -0.08400
C382        C  0.38195627  0.76548360  0.26403918    -0.09900
C383        C  0.39214867  0.78579393  0.03779412    -0.08400
C384        C  0.38193091  0.76547105  0.06857801    -0.09900
C385        C  0.05218975  0.88655999  0.33304456    -0.13600
C386        C  0.01841365  0.87094277  0.33302429     0.10400
C387        C  0.47886698  0.85118916  0.33299309     0.12300
C388        C  0.44508879  0.83305661  0.33297303    -0.14500
C389        C  0.38694687  0.83327126  0.33296805    -0.13600
C390        C  0.37147704  0.85153991  0.33295958     0.10400
C391        C  0.35179883  0.87137235  0.33294617     0.12300
C392        C  0.33364200  0.88696242  0.33293726    -0.14500
C393        C  0.40415005  0.80960125  0.66630341     0.02400
C394        C  0.09312573  0.90403032  0.66638141     0.02400
C395        C  0.18715500  0.59283638  0.66641396     0.02400
C396        C  0.09305846  0.68749896  0.33304249     0.02400
C397        C  0.40408452  0.59307065  0.66630779     0.02400
C398        C  0.31005446  0.90426286  0.66626974     0.02400
Fe399      Fe  0.10986692  0.80415105  0.49971117     1.65800
Fe400      Fe  0.19330762  0.80417811  0.49965431     1.73200
Fe401      Fe  0.19333522  0.88757231  0.49966144     1.54400
O402        O  0.16051315  0.89109603  0.45213581    -0.76800
O403        O  0.22965526  0.83696948  0.54720142    -0.75100
O404        O  0.10633675  0.83692390  0.45215232    -0.79300
O405        O  0.10634412  0.83694422  0.54725599    -0.74200
O406        O  0.22966644  0.89111663  0.45207518    -0.75900
O407        O  0.16048058  0.76782930  0.54721416    -0.78700
C408        C  0.12802258  0.86943246  0.56191377     1.02100
C409        C  0.12800204  0.86942187  0.43749068     1.09500
O410        O  0.16550421  0.83196759  0.49967564    -1.07700
O411        O  0.16049147  0.76785648  0.45210081    -0.70100
O412        O  0.10631072  0.76781918  0.45217068    -0.73600
O413        O  0.16054118  0.89109533  0.54725069    -0.74300
C414        C  0.12797240  0.75700251  0.43748103     1.01000
O415        O  0.10632528  0.76784245  0.54727411    -0.72200
O416        O  0.22967226  0.83699089  0.45209583    -0.77400
C417        C  0.24051818  0.86946513  0.56184162     1.03600
C418        C  0.24051069  0.86947455  0.43742340     1.09500
O419        O  0.22969521  0.89111851  0.54718063    -0.73100
C420        C  0.12797839  0.75700009  0.56190336     1.07800
Fe421      Fe  0.38734250  0.69295315  0.49964008     1.65800
Fe422      Fe  0.30387808  0.60952814  0.49969582     1.73200
Fe423      Fe  0.30389793  0.69291846  0.49968928     1.54400
O424        O  0.33673119  0.72926932  0.54721473    -0.76800
O425        O  0.26753989  0.60597747  0.45214827    -0.75100
O426        O  0.39089123  0.72926522  0.54719878    -0.79300
O427        O  0.39088462  0.72927853  0.45209574    -0.74200
O428        O  0.26755727  0.66012766  0.54727496    -0.75900
O429        O  0.33669396  0.60600031  0.45213557    -0.78700
C430        C  0.36921893  0.74009432  0.43743805     1.02100
C431        C  0.36923854  0.74010381  0.56186028     1.09500
O432        O  0.33170521  0.66513281  0.49967509    -1.07700
O433        O  0.33668229  0.60601616  0.54725021    -0.70100
O434        O  0.39087940  0.66016760  0.54718077    -0.73600
O435        O  0.33670393  0.72924101  0.45210116    -0.74300
C436        C  0.36920495  0.62768246  0.56187015     1.01000
O437        O  0.39086565  0.66017669  0.45207670    -0.72200
O438        O  0.26752210  0.60598143  0.54725410    -0.77400
C439        C  0.25669177  0.62761722  0.43750828     1.03600
C440        C  0.25669825  0.62763352  0.56192653     1.09500
O441        O  0.26752928  0.66010120  0.45216969    -0.73100
C442        C  0.36919994  0.62767455  0.43744702     1.07800
C443        C  0.26590102  0.88216982  0.40188990    -0.08400
C444        C  0.28623249  0.89233955  0.37109828    -0.09900
C445        C  0.26591187  0.88216255  0.59734871    -0.08400
C446        C  0.28624254  0.89233687  0.62812181    -0.09900
C447        C  0.38191621  0.61501915  0.59738300    -0.08400
C448        C  0.39212371  0.60490717  0.62815678    -0.09900
C449        C  0.38189964  0.61499985  0.40192240    -0.08400
C450        C  0.39210364  0.60488621  0.37113732    -0.09900
C451        C  0.33360226  0.94516555  0.66626170    -0.13600
C452        C  0.35172851  0.97892201  0.66626874     0.10400
C453        C  0.37138302  0.51844133  0.66628555     0.12300
C454        C  0.38685156  0.55218667  0.66629939    -0.14500
C455        C  0.11525048  0.73162404  0.40196741    -0.08400
C456        C  0.10503346  0.71130146  0.37119286    -0.09900
C457        C  0.10505453  0.71130097  0.62821419    -0.08400
C458        C  0.11526846  0.73162192  0.59742863    -0.09900
C459        C  0.44501981  0.61053454  0.66630762    -0.13600
C460        C  0.47879572  0.62614871  0.66632621     0.10400
C461        C  0.01834236  0.64590225  0.66635633     0.12300
C462        C  0.05212029  0.66403768  0.66637525    -0.14500
C463        C  0.21096734  0.60475141  0.37122815    -0.08400
C464        C  0.23129820  0.61491925  0.40200105    -0.09900
C465        C  0.21097652  0.60476349  0.62825169    -0.08400
C466        C  0.23130779  0.61493655  0.59745993    -0.09900
C467        C  0.16357296  0.61014300  0.66642233    -0.13600
C468        C  0.14541881  0.62573598  0.33308210     0.10400
C469        C  0.12574076  0.64556860  0.33306513     0.12300
C470        C  0.11026805  0.66383463  0.33305106    -0.14500
C471        C  0.11532112  0.88210385  0.59743989    -0.07800
C472        C  0.10511282  0.89221532  0.62822320    -0.09900
C473        C  0.10508780  0.89220091  0.37120366    -0.08400
C474        C  0.11529460  0.88209039  0.40197929    -0.09900
C475        C  0.16360162  0.55193437  0.66641345    -0.13600
C476        C  0.14547254  0.51817806  0.66640502     0.10400
C477        C  0.12581792  0.97865869  0.66639212     0.12300
C478        C  0.11035225  0.94491360  0.66638378    -0.14500
C479        C  0.39217286  0.78580411  0.62814882    -0.08400
C480        C  0.38195626  0.76548355  0.59737251    -0.09900
C481        C  0.39214867  0.78579393  0.37112745    -0.08400
C482        C  0.38193093  0.76547109  0.40191136    -0.09900
C483        C  0.05218981  0.88655997  0.66637793    -0.13600
C484        C  0.01841368  0.87094274  0.66635763     0.10400
C485        C  0.47886702  0.85118924  0.66632639     0.12300
C486        C  0.44508880  0.83305665  0.66630637    -0.14500
C487        C  0.38694690  0.83327130  0.66630139    -0.13600
C488        C  0.37147706  0.85153998  0.66629296     0.10400
C489        C  0.35179889  0.87137241  0.66627957     0.12300
C490        C  0.33364205  0.88696252  0.66627065    -0.14500
C491        C  0.40415005  0.80960124  0.99963677     0.02400
C492        C  0.09312574  0.90403035  0.99971474     0.02400
C493        C  0.18715495  0.59283632  0.99974727     0.02400
C494        C  0.09305843  0.68749896  0.66637579     0.02400
C495        C  0.40408452  0.59307070  0.99964116     0.02400
C496        C  0.31005445  0.90426288  0.99960298     0.02400
Fe497      Fe  0.10986692  0.80415101  0.83304453     1.65800
Fe498      Fe  0.19330759  0.80417807  0.83298764     1.73200
Fe499      Fe  0.19333518  0.88757226  0.83299474     1.54400
O500        O  0.16051311  0.89109592  0.78546909    -0.76800
O501        O  0.22965521  0.83696942  0.88053474    -0.75100
O502        O  0.10633669  0.83692382  0.78548570    -0.79300
O503        O  0.10634406  0.83694416  0.88058936    -0.74200
O504        O  0.22966637  0.89111649  0.78540846    -0.75900
O505        O  0.16048055  0.76782925  0.88054747    -0.78700
C506        C  0.12802252  0.86943243  0.89524706     1.02100
C507        C  0.12800198  0.86942177  0.77082404     1.09500
O508        O  0.16550421  0.83196757  0.83300895    -1.07700
O509        O  0.16049145  0.76785642  0.78543421    -0.70100
O510        O  0.10631068  0.76781910  0.78550406    -0.73600
O511        O  0.16054110  0.89109528  0.88058397    -0.74300
C512        C  0.12797234  0.75700239  0.77081439     1.01000
O513        O  0.10632529  0.76784244  0.88060749    -0.72200
O514        O  0.22967228  0.83699081  0.78542916    -0.77400
C515        C  0.24051811  0.86946505  0.89517496     1.03600
C516        C  0.24051063  0.86947446  0.77075676     1.09500
O517        O  0.22969514  0.89111843  0.88051396    -0.73100
C518        C  0.12797839  0.75700005  0.89523668     1.07800
Fe519      Fe  0.38734254  0.69295317  0.83297338     1.65800
Fe520      Fe  0.30387810  0.60952813  0.83302919     1.73200
Fe521      Fe  0.30389799  0.69291846  0.83302261     1.54400
O522        O  0.33673127  0.72926934  0.88054805    -0.76800
O523        O  0.26753994  0.60597749  0.78548163    -0.75100
O524        O  0.39089132  0.72926527  0.88053212    -0.79300
O525        O  0.39088464  0.72927849  0.78542901    -0.74200
O526        O  0.26755734  0.66012768  0.88060832    -0.75900
O527        O  0.33669398  0.60600027  0.78546899    -0.78700
C528        C  0.36921897  0.74009432  0.77077135     1.02100
C529        C  0.36923859  0.74010383  0.89519361     1.09500
O530        O  0.33170524  0.66513280  0.83300837    -1.07700
O531        O  0.33668231  0.60601621  0.88058356    -0.70100
O532        O  0.39087944  0.66016766  0.88051404    -0.73600
O533        O  0.33670399  0.72924103  0.78543450    -0.74300
C534        C  0.36920500  0.62768250  0.89520351     1.01000
O535        O  0.39086568  0.66017666  0.78541001    -0.72200
O536        O  0.26752212  0.60598143  0.88058749    -0.77400
C537        C  0.25669178  0.62761719  0.77084163     1.03600
C538        C  0.25669830  0.62763356  0.89525989     1.09500
O539        O  0.26752931  0.66010123  0.78550307    -0.73100
C540        C  0.36919998  0.62767452  0.77078039     1.07800
C541        C  0.26590106  0.88216978  0.73522322    -0.08400
C542        C  0.28623249  0.89233954  0.70443170    -0.09900
C543        C  0.26591178  0.88216249  0.93068201    -0.08400
C544        C  0.28624248  0.89233687  0.96145511    -0.09900
C545        C  0.38191626  0.61501925  0.93071629    -0.08400
C546        C  0.39212376  0.60490720  0.96149016    -0.09900
C547        C  0.38189961  0.61499975  0.73525575    -0.08400
C548        C  0.39210358  0.60488609  0.70447064    -0.09900
C549        C  0.33360221  0.94516551  0.99959489    -0.13600
C550        C  0.35172851  0.97892207  0.99960192     0.10400
C551        C  0.37138306  0.51844142  0.99961886     0.12300
C552        C  0.38685157  0.55218667  0.99963279    -0.14500
C553        C  0.11525047  0.73162398  0.73530081    -0.08400
C554        C  0.10503342  0.71130141  0.70452614    -0.09900
C555        C  0.10505459  0.71130094  0.96154755    -0.08400
C556        C  0.11526848  0.73162187  0.93076197    -0.09900
C557        C  0.44501981  0.61053458  0.99964105    -0.13600
C558        C  0.47879570  0.62614874  0.99965964     0.10400
C559        C  0.01834235  0.64590231  0.99968978     0.12300
C560        C  0.05212036  0.66403776  0.99970865    -0.14500
C561        C  0.21096734  0.60475142  0.70456152    -0.08400
C562        C  0.23129824  0.61491927  0.73533448    -0.09900
C563        C  0.21097650  0.60476348  0.96158500    -0.08400
C564        C  0.23130779  0.61493658  0.93079329    -0.09900
C565        C  0.16357289  0.61014288  0.99975568    -0.13600
C566        C  0.14541892  0.62573606  0.66641534     0.10400
C567        C  0.12574078  0.64556865  0.66639836     0.12300
C568        C  0.11026805  0.66383463  0.66638431    -0.14500
C569        C  0.11532109  0.88210389  0.93077319    -0.07800
C570        C  0.10511285  0.89221536  0.96155650    -0.09900
C571        C  0.10508781  0.89220086  0.70453701    -0.08400
C572        C  0.11529453  0.88209030  0.73531265    -0.09900
C573        C  0.16360160  0.55193433  0.99974673    -0.13600
C574        C  0.14547254  0.51817801  0.99973830     0.10400
C575        C  0.12581784  0.97865872  0.99972541     0.12300
C576        C  0.11035222  0.94491362  0.99971708    -0.14500
C577        C  0.39217288  0.78580411  0.96148217    -0.08400
C578        C  0.38195629  0.76548358  0.93070588    -0.09900
C579        C  0.39214867  0.78579394  0.70446076    -0.08400
C580        C  0.38193096  0.76547108  0.73524467    -0.09900
C581        C  0.05218980  0.88655998  0.99971126    -0.13600
C582        C  0.01841368  0.87094274  0.99969101     0.10400
C583        C  0.47886700  0.85118921  0.99965966     0.12300
C584        C  0.44508880  0.83305664  0.99963968    -0.14500
C585        C  0.38694686  0.83327126  0.99963473    -0.13600
C586        C  0.37147705  0.85153997  0.99962622     0.10400
C587        C  0.35179892  0.87137246  0.99961281     0.12300
C588        C  0.33364206  0.88696254  0.99960387    -0.14500
C589        C  0.90415006  0.30960127  0.33297008     0.02400
C590        C  0.59312574  0.40403038  0.33304804     0.02400
C591        C  0.68715496  0.09283632  0.33308060     0.02400
C592        C  0.59305845  0.18749894  0.99970917     0.02400
C593        C  0.90408454  0.09307068  0.33297447     0.02400
C594        C  0.81005445  0.40426287  0.33293637     0.02400
Fe595      Fe  0.60986691  0.30415104  0.16637786     1.65800
Fe596      Fe  0.69330761  0.30417810  0.16632096     1.73200
Fe597      Fe  0.69333523  0.38757231  0.16632807     1.54400
O598        O  0.66051314  0.39109598  0.11880245    -0.76800
O599        O  0.72965526  0.33696945  0.21386806    -0.75100
O600        O  0.60633671  0.33692386  0.11881902    -0.79300
O601        O  0.60634410  0.33694424  0.21392263    -0.74200
O602        O  0.72966648  0.39111659  0.11874179    -0.75900
O603        O  0.66048055  0.26782926  0.21388080    -0.78700
C604        C  0.62802256  0.36943250  0.22858041     1.02100
C605        C  0.62800201  0.36942184  0.10415735     1.09500
O606        O  0.66550421  0.33196760  0.16634232    -1.07700
O607        O  0.66049148  0.26785651  0.11876744    -0.70100
O608        O  0.60631067  0.26781912  0.11883739    -0.73600
O609        O  0.66054116  0.39109537  0.21391730    -0.74300
C610        C  0.62797237  0.25700249  0.10414768     1.01000
O611        O  0.60632530  0.26784248  0.21394086    -0.72200
O612        O  0.72967227  0.33699085  0.11876250    -0.77400
C613        C  0.74051816  0.36946510  0.22850829     1.03600
C614        C  0.74051069  0.36947453  0.10409008     1.09500
O615        O  0.72969515  0.39111846  0.21384728    -0.73100
C616        C  0.62797841  0.25700010  0.22857003     1.07800
Fe617      Fe  0.88734249  0.19295314  0.16630674     1.65800
Fe618      Fe  0.80387805  0.10952812  0.16636254     1.73200
Fe619      Fe  0.80389796  0.19291848  0.16635597     1.54400
O620        O  0.83673123  0.22926937  0.21388142    -0.76800
O621        O  0.76753988  0.10597747  0.11881498    -0.75100
O622        O  0.89089125  0.22926526  0.21386542    -0.79300
O623        O  0.89088457  0.22927846  0.11876238    -0.74200
O624        O  0.76755729  0.16012766  0.21394164    -0.75900
O625        O  0.83669389  0.10600024  0.11880235    -0.78700
C626        C  0.86921892  0.24009432  0.10410470     1.02100
C627        C  0.86923858  0.24010385  0.22852693     1.09500
O628        O  0.83170519  0.16513279  0.16634174    -1.07700
O629        O  0.83668229  0.10601620  0.21391689    -0.70100
O630        O  0.89087940  0.16016764  0.21384742    -0.73600
O631        O  0.83670393  0.22924103  0.11876787    -0.74300
C632        C  0.86920493  0.12768246  0.22853684     1.01000
O633        O  0.89086560  0.16017662  0.11874340    -0.72200
O634        O  0.76752210  0.10598142  0.21392081    -0.77400
C635        C  0.75669176  0.12761721  0.10417503     1.03600
C636        C  0.75669825  0.12763356  0.22859321     1.09500
O637        O  0.76752928  0.16010122  0.11883642    -0.73100
C638        C  0.86919991  0.12767449  0.10411373     1.07800
C639        C  0.76590109  0.38216978  0.06855653    -0.08400
C640        C  0.78623250  0.39233957  0.03776498    -0.09900
C641        C  0.76591181  0.38216254  0.26401533    -0.08400
C642        C  0.78624253  0.39233690  0.29478847    -0.09900
C643        C  0.88191621  0.11501921  0.26404965    -0.08400
C644        C  0.89212374  0.10490717  0.29482347    -0.09900
C645        C  0.88189953  0.11499974  0.06858913    -0.08400
C646        C  0.89210358  0.10488611  0.03780400    -0.09900
C647        C  0.83360229  0.44516557  0.33292834    -0.13600
C648        C  0.85172855  0.47892202  0.33293538     0.10400
C649        C  0.87138304  0.01844139  0.33295223     0.12300
C650        C  0.88685156  0.05218665  0.33296614    -0.14500
C651        C  0.61525046  0.23162404  0.06863408    -0.08400
C652        C  0.60503344  0.21130144  0.03785953    -0.09900
C653        C  0.60505461  0.21130095  0.29488084    -0.08400
C654        C  0.61526850  0.23162190  0.26409533    -0.09900
C655        C  0.94501980  0.11053454  0.33297434    -0.13600
C656        C  0.97879573  0.12614872  0.33299292     0.10400
C657        C  0.51834233  0.14590227  0.33302303     0.12300
C658        C  0.55212033  0.16403773  0.33304193    -0.14500
C659        C  0.71096735  0.10475141  0.03789488    -0.08400
C660        C  0.73129817  0.11491925  0.06866779    -0.09900
C661        C  0.71097646  0.10476345  0.29491831    -0.08400
C662        C  0.73130775  0.11493655  0.26412658    -0.09900
C663        C  0.66357291  0.11014291  0.33308903    -0.13600
C664        C  0.64541880  0.12573593  0.99974876     0.10400
C665        C  0.62574075  0.14556856  0.99973178     0.12300
C666        C  0.61026807  0.16383461  0.99971774    -0.14500
C667        C  0.61532114  0.38210388  0.26410652    -0.07800
C668        C  0.60511286  0.39221539  0.29488987    -0.09900
C669        C  0.60508782  0.39220090  0.03787030    -0.08400
C670        C  0.61529460  0.38209034  0.06864598    -0.09900
C671        C  0.66360157  0.05193431  0.33308005    -0.13600
C672        C  0.64547250  0.01817802  0.33307157     0.10400
C673        C  0.62581792  0.47865875  0.33305871     0.12300
C674        C  0.61035225  0.44491365  0.33305039    -0.14500
C675        C  0.89217291  0.28580414  0.29481548    -0.08400
C676        C  0.88195633  0.26548362  0.26403918    -0.09900
C677        C  0.89214867  0.28579391  0.03779408    -0.08400
C678        C  0.88193091  0.26547105  0.06857804    -0.09900
C679        C  0.55218981  0.38656001  0.33304455    -0.13600
C680        C  0.51841367  0.37094276  0.33302430     0.10400
C681        C  0.97886701  0.35118921  0.33299312     0.12300
C682        C  0.94508879  0.33305664  0.33297306    -0.14500
C683        C  0.88694691  0.33327130  0.33296805    -0.13600
C684        C  0.87147707  0.35154001  0.33295957     0.10400
C685        C  0.85179892  0.37137243  0.33294614     0.12300
C686        C  0.83364206  0.38696253  0.33293724    -0.14500
C687        C  0.90415003  0.30960123  0.66630343     0.02400
C688        C  0.59312575  0.40403037  0.66638143     0.02400
C689        C  0.68715496  0.09283629  0.66641394     0.02400
C690        C  0.59305843  0.18749892  0.33304246     0.02400
C691        C  0.90408458  0.09307074  0.66630779     0.02400
C692        C  0.81005439  0.40426282  0.66626972     0.02400
Fe693      Fe  0.60986692  0.30415102  0.49971116     1.65800
Fe694      Fe  0.69330759  0.30417807  0.49965432     1.73200
Fe695      Fe  0.69333519  0.38757227  0.49966142     1.54400
O696        O  0.66051311  0.39109597  0.45213579    -0.76800
O697        O  0.72965523  0.33696946  0.54720140    -0.75100
O698        O  0.60633671  0.33692385  0.45215231    -0.79300
O699        O  0.60634407  0.33694417  0.54725600    -0.74200
O700        O  0.72966637  0.39111653  0.45207513    -0.75900
O701        O  0.66048055  0.26782928  0.54721421    -0.78700
C702        C  0.62802251  0.36943241  0.56191374     1.02100
C703        C  0.62800200  0.36942182  0.43749069     1.09500
O704        O  0.66550420  0.33196758  0.49967563    -1.07700
O705        O  0.66049143  0.26785639  0.45210089    -0.70100
O706        O  0.60631070  0.26781914  0.45217067    -0.73600
O707        O  0.66054113  0.39109528  0.54725066    -0.74300
C708        C  0.62797237  0.25700242  0.43748106     1.01000
O709        O  0.60632526  0.26784241  0.54727412    -0.72200
O710        O  0.72967225  0.33699082  0.45209583    -0.77400
C711        C  0.74051810  0.36946507  0.56184160     1.03600
C712        C  0.74051065  0.36947447  0.43742338     1.09500
O713        O  0.72969515  0.39111846  0.54718064    -0.73100
C714        C  0.62797837  0.25700006  0.56190336     1.07800
Fe715      Fe  0.88734252  0.19295316  0.49964009     1.65800
Fe716      Fe  0.80387809  0.10952813  0.49969584     1.73200
Fe717      Fe  0.80389795  0.19291845  0.49968926     1.54400
O718        O  0.83673125  0.22926934  0.54721470    -0.76800
O719        O  0.76753994  0.10597749  0.45214828    -0.75100
O720        O  0.89089126  0.22926521  0.54719883    -0.79300
O721        O  0.89088463  0.22927854  0.45209575    -0.74200
O722        O  0.76755731  0.16012768  0.54727500    -0.75900
O723        O  0.83669399  0.10600031  0.45213560    -0.78700
C724        C  0.86921893  0.24009431  0.43743803     1.02100
C725        C  0.86923855  0.24010381  0.56186029     1.09500
O726        O  0.83170522  0.16513280  0.49967508    -1.07700
O727        O  0.83668231  0.10601618  0.54725021    -0.70100
O728        O  0.89087944  0.16016762  0.54718072    -0.73600
O729        O  0.83670394  0.22924098  0.45210108    -0.74300
C730        C  0.86920499  0.12768247  0.56187015     1.01000
O731        O  0.89086569  0.16017669  0.45207667    -0.72200
O732        O  0.76752209  0.10598142  0.54725410    -0.77400
C733        C  0.75669175  0.12761716  0.43750827     1.03600
C734        C  0.75669828  0.12763355  0.56192655     1.09500
O735        O  0.76752925  0.16010120  0.45216975    -0.73100
C736        C  0.86919999  0.12767457  0.43744704     1.07800
C737        C  0.76590104  0.38216979  0.40188991    -0.08400
C738        C  0.78623253  0.39233958  0.37109832    -0.09900
C739        C  0.76591178  0.38216251  0.59734873    -0.08400
C740        C  0.78624243  0.39233683  0.62812178    -0.09900
C741        C  0.88191624  0.11501922  0.59738296    -0.08400
C742        C  0.89212375  0.10490721  0.62815680    -0.09900
C743        C  0.88189965  0.11499979  0.40192240    -0.08400
C744        C  0.89210360  0.10488614  0.37113732    -0.09900
C745        C  0.83360220  0.44516546  0.66626167    -0.13600
C746        C  0.85172848  0.47892199  0.66626871     0.10400
C747        C  0.87138306  0.01844144  0.66628559     0.12300
C748        C  0.88685160  0.05218670  0.66629942    -0.14500
C749        C  0.61525047  0.23162395  0.40196745    -0.08400
C750        C  0.60503346  0.21130140  0.37119284    -0.09900
C751        C  0.60505460  0.21130096  0.62821420    -0.08400
C752        C  0.61526844  0.23162189  0.59742867    -0.09900
C753        C  0.94501981  0.11053459  0.66630762    -0.13600
C754        C  0.97879580  0.12614877  0.66632624     0.10400
C755        C  0.51834236  0.14590225  0.66635635     0.12300
C756        C  0.55212037  0.16403774  0.66637527    -0.14500
C757        C  0.71096733  0.10475135  0.37122814    -0.08400
C758        C  0.73129824  0.11491924  0.40200110    -0.09900
C759        C  0.71097649  0.10476344  0.62825167    -0.08400
C760        C  0.73130781  0.11493655  0.59745997    -0.09900
C761        C  0.66357284  0.11014286  0.66642230    -0.13600
C762        C  0.64541884  0.12573598  0.33308207     0.10400
C763        C  0.62574076  0.14556858  0.33306510     0.12300
C764        C  0.61026802  0.16383457  0.33305102    -0.14500
C765        C  0.61532109  0.38210387  0.59743987    -0.07800
C766        C  0.60511285  0.39221535  0.62822320    -0.09900
C767        C  0.60508784  0.39220095  0.37120367    -0.08400
C768        C  0.61529457  0.38209038  0.40197928    -0.09900
C769        C  0.66360163  0.05193430  0.66641343    -0.13600
C770        C  0.64547256  0.01817799  0.66640500     0.10400
C771        C  0.62581791  0.47865874  0.66639210     0.12300
C772        C  0.61035227  0.44491363  0.66638377    -0.14500
C773        C  0.89217289  0.28580412  0.62814883    -0.08400
C774        C  0.88195627  0.26548358  0.59737253    -0.09900
C775        C  0.89214867  0.28579393  0.37112744    -0.08400
C776        C  0.88193099  0.26547110  0.40191131    -0.09900
C777        C  0.55218980  0.38656002  0.66637795    -0.13600
C778        C  0.51841369  0.37094280  0.66635765     0.10400
C779        C  0.97886694  0.35118921  0.66632639     0.12300
C780        C  0.94508888  0.33305669  0.66630640    -0.14500
C781        C  0.88694686  0.33327126  0.66630139    -0.13600
C782        C  0.87147700  0.35153992  0.66629294     0.10400
C783        C  0.85179885  0.37137238  0.66627956     0.12300
C784        C  0.83364198  0.38696245  0.66627061    -0.14500
C785        C  0.90415004  0.30960119  0.99963674     0.02400
C786        C  0.59312574  0.40403035  0.99971474     0.02400
C787        C  0.68715496  0.09283633  0.99974729     0.02400
C788        C  0.59305847  0.18749896  0.66637582     0.02400
C789        C  0.90408455  0.09307070  0.99964117     0.02400
C790        C  0.81005444  0.40426285  0.99960301     0.02400
Fe791      Fe  0.60986695  0.30415104  0.83304452     1.65800
Fe792      Fe  0.69330762  0.30417811  0.83298766     1.73200
Fe793      Fe  0.69333521  0.38757229  0.83299477     1.54400
O794        O  0.66051317  0.39109597  0.78546912    -0.76800
O795        O  0.72965527  0.33696949  0.88053473    -0.75100
O796        O  0.60633673  0.33692388  0.78548568    -0.79300
O797        O  0.60634414  0.33694419  0.88058937    -0.74200
O798        O  0.72966642  0.39111657  0.78540853    -0.75900
O799        O  0.66048060  0.26782928  0.88054751    -0.78700
C800        C  0.62802253  0.36943244  0.89524709     1.02100
C801        C  0.62800203  0.36942182  0.77082404     1.09500
O802        O  0.66550423  0.33196760  0.83300896    -1.07700
O803        O  0.66049151  0.26785646  0.78543423    -0.70100
O804        O  0.60631075  0.26781916  0.78550404    -0.73600
O805        O  0.66054115  0.39109535  0.88058398    -0.74300
C806        C  0.62797237  0.25700242  0.77081438     1.01000
O807        O  0.60632533  0.26784247  0.88060749    -0.72200
O808        O  0.72967229  0.33699088  0.78542921    -0.77400
C809        C  0.74051815  0.36946510  0.89517496     1.03600
C810        C  0.74051067  0.36947448  0.77075681     1.09500
O811        O  0.72969516  0.39111848  0.88051398    -0.73100
C812        C  0.62797843  0.25700007  0.89523669     1.07800
Fe813      Fe  0.88734247  0.19295314  0.83297336     1.65800
Fe814      Fe  0.80387806  0.10952811  0.83302921     1.73200
Fe815      Fe  0.80389791  0.19291843  0.83302258     1.54400
O816        O  0.83673114  0.22926931  0.88054801    -0.76800
O817        O  0.76753986  0.10597743  0.78548165    -0.75100
O818        O  0.89089119  0.22926523  0.88053207    -0.79300
O819        O  0.89088452  0.22927845  0.78542899    -0.74200
O820        O  0.76755726  0.16012762  0.88060825    -0.75900
O821        O  0.83669389  0.10600023  0.78546898    -0.78700
C822        C  0.86921889  0.24009428  0.77077131     1.02100
C823        C  0.86923853  0.24010380  0.89519355     1.09500
O824        O  0.83170519  0.16513279  0.83300838    -1.07700
O825        O  0.83668226  0.10601613  0.88058354    -0.70100
O826        O  0.89087935  0.16016760  0.88051405    -0.73600
O827        O  0.83670387  0.22924099  0.78543445    -0.74300
C828        C  0.86920497  0.12768247  0.89520346     1.01000
O829        O  0.89086559  0.16017662  0.78541001    -0.72200
O830        O  0.76752208  0.10598139  0.88058751    -0.77400
C831        C  0.75669170  0.12761710  0.77084169     1.03600
C832        C  0.75669823  0.12763349  0.89525987     1.09500
O833        O  0.76752922  0.16010116  0.78550309    -0.73100
C834        C  0.86919990  0.12767448  0.77078034     1.07800
C835        C  0.76590105  0.38216979  0.73522325    -0.08400
C836        C  0.78623243  0.39233950  0.70443168    -0.09900
C837        C  0.76591178  0.38216251  0.93068205    -0.08400
C838        C  0.78624249  0.39233686  0.96145514    -0.09900
C839        C  0.88191626  0.11501921  0.93071627    -0.08400
C840        C  0.89212380  0.10490724  0.96149014    -0.09900
C841        C  0.88189952  0.11499976  0.73525572    -0.08400
C842        C  0.89210361  0.10488615  0.70447058    -0.09900
C843        C  0.83360229  0.44516553  0.99959494    -0.13600
C844        C  0.85172854  0.47892199  0.99960197     0.10400
C845        C  0.87138309  0.01844137  0.99961883     0.12300
C846        C  0.88685163  0.05218674  0.99963276    -0.14500
C847        C  0.61525053  0.23162400  0.73530087    -0.08400
C848        C  0.60503349  0.21130140  0.70452616    -0.09900
C849        C  0.60505460  0.21130095  0.96154754    -0.08400
C850        C  0.61526847  0.23162185  0.93076197    -0.09900
C851        C  0.94501986  0.11053459  0.99964106    -0.13600
C852        C  0.97879574  0.12614872  0.99965966     0.10400
C853        C  0.51834234  0.14590231  0.99968979     0.12300
C854        C  0.55212040  0.16403777  0.99970865    -0.14500
C855        C  0.71096731  0.10475137  0.70456153    -0.08400
C856        C  0.73129814  0.11491918  0.73533448    -0.09900
C857        C  0.71097646  0.10476346  0.96158500    -0.08400
C858        C  0.73130773  0.11493655  0.93079324    -0.09900
C859        C  0.66357289  0.11014288  0.99975571    -0.13600
C860        C  0.64541883  0.12573588  0.66641531     0.10400
C861        C  0.62574072  0.14556859  0.66639833     0.12300
C862        C  0.61026809  0.16383457  0.66638431    -0.14500
C863        C  0.61532108  0.38210387  0.93077318    -0.07800
C864        C  0.60511282  0.39221535  0.96155651    -0.09900
C865        C  0.60508784  0.39220093  0.70453703    -0.08400
C866        C  0.61529461  0.38209040  0.73531267    -0.09900
C867        C  0.66360161  0.05193433  0.99974680    -0.13600
C868        C  0.64547256  0.01817802  0.99973837     0.10400
C869        C  0.62581790  0.47865873  0.99972540     0.12300
C870        C  0.61035223  0.44491361  0.99971709    -0.14500
C871        C  0.89217285  0.28580407  0.96148212    -0.08400
C872        C  0.88195622  0.26548355  0.93070583    -0.09900
C873        C  0.89214865  0.28579393  0.70446077    -0.08400
C874        C  0.88193088  0.26547104  0.73524465    -0.09900
C875        C  0.55218973  0.38655996  0.99971125    -0.13600
C876        C  0.51841372  0.37094277  0.99969099     0.10400
C877        C  0.97886697  0.35118919  0.99965969     0.12300
C878        C  0.94508879  0.33305662  0.99963965    -0.14500
C879        C  0.88694685  0.33327126  0.99963470    -0.13600
C880        C  0.87147704  0.35153990  0.99962622     0.10400
C881        C  0.85179883  0.37137237  0.99961285     0.12300
C882        C  0.83364202  0.38696244  0.99960393    -0.14500
C883        C  0.90415002  0.80960120  0.33297009     0.02400
C884        C  0.59312573  0.90403035  0.33304808     0.02400
C885        C  0.68715494  0.59283633  0.33308056     0.02400
C886        C  0.59305842  0.68749893  0.99970917     0.02400
C887        C  0.90408456  0.59307075  0.33297453     0.02400
C888        C  0.81005438  0.90426281  0.33293636     0.02400
Fe889      Fe  0.60986693  0.80415103  0.16637785     1.65800
Fe890      Fe  0.69330761  0.80417810  0.16632094     1.73200
Fe891      Fe  0.69333520  0.88757229  0.16632810     1.54400
O892        O  0.66051316  0.89109597  0.11880246    -0.76800
O893        O  0.72965528  0.83696950  0.21386799    -0.75100
O894        O  0.60633674  0.83692387  0.11881901    -0.79300
O895        O  0.60634412  0.83694421  0.21392266    -0.74200
O896        O  0.72966647  0.89111663  0.11874184    -0.75900
O897        O  0.66048058  0.76782924  0.21388082    -0.78700
C898        C  0.62802251  0.86943242  0.22858039     1.02100
C899        C  0.62800202  0.86942182  0.10415738     1.09500
O900        O  0.66550421  0.83196759  0.16634232    -1.07700
O901        O  0.66049146  0.76785647  0.11876750    -0.70100
O902        O  0.60631068  0.76781912  0.11883736    -0.73600
O903        O  0.66054114  0.89109534  0.21391731    -0.74300
C904        C  0.62797236  0.75700245  0.10414771     1.01000
O905        O  0.60632533  0.76784246  0.21394084    -0.72200
O906        O  0.72967225  0.83699089  0.11876242    -0.77400
C907        C  0.74051812  0.86946506  0.22850825     1.03600
C908        C  0.74051068  0.86947453  0.10409007     1.09500
O909        O  0.72969510  0.89111846  0.21384732    -0.73100
C910        C  0.62797844  0.75700009  0.22856999     1.07800
Fe911      Fe  0.88734251  0.69295313  0.16630673     1.65800
Fe912      Fe  0.80387807  0.60952811  0.16636253     1.73200
Fe913      Fe  0.80389797  0.69291844  0.16635595     1.54400
O914        O  0.83673128  0.72926934  0.21388135    -0.76800
O915        O  0.76753990  0.60597741  0.11881498    -0.75100
O916        O  0.89089130  0.72926523  0.21386545    -0.79300
O917        O  0.89088462  0.72927848  0.11876239    -0.74200
O918        O  0.76755736  0.66012767  0.21394167    -0.75900
O919        O  0.83669393  0.60600025  0.11880230    -0.78700
C920        C  0.86921893  0.74009428  0.10410468     1.02100
C921        C  0.86923858  0.74010382  0.22852690     1.09500
O922        O  0.83170521  0.66513278  0.16634171    -1.07700
O923        O  0.83668225  0.60601614  0.21391687    -0.70100
O924        O  0.89087936  0.66016757  0.21384740    -0.73600
O925        O  0.83670393  0.72924097  0.11876777    -0.74300
C926        C  0.86920496  0.62768246  0.22853682     1.01000
O927        O  0.89086564  0.66017662  0.11874337    -0.72200
O928        O  0.76752209  0.60598140  0.21392083    -0.77400
C929        C  0.75669174  0.62761714  0.10417508     1.03600
C930        C  0.75669831  0.62763352  0.22859323     1.09500
O931        O  0.76752924  0.66010112  0.11883648    -0.73100
C932        C  0.86919991  0.62767447  0.10411372     1.07800
C933        C  0.76590111  0.88216986  0.06855652    -0.08400
C934        C  0.78623253  0.89233960  0.03776498    -0.09900
C935        C  0.76591177  0.88216250  0.26401535    -0.08400
C936        C  0.78624243  0.89233682  0.29478845    -0.09900
C937        C  0.88191620  0.61501919  0.26404967    -0.08400
C938        C  0.89212374  0.60490724  0.29482353    -0.09900
C939        C  0.88189955  0.61499972  0.06858907    -0.08400
C940        C  0.89210358  0.60488612  0.03780396    -0.09900
C941        C  0.83360223  0.94516550  0.33292828    -0.13600
C942        C  0.85172849  0.97892195  0.33293534     0.10400
C943        C  0.87138313  0.51844146  0.33295225     0.12300
C944        C  0.88685163  0.55218673  0.33296616    -0.14500
C945        C  0.61525048  0.73162398  0.06863413    -0.08400
C946        C  0.60503344  0.71130140  0.03785954    -0.09900
C947        C  0.60505467  0.71130099  0.29488084    -0.08400
C948        C  0.61526849  0.73162186  0.26409534    -0.09900
C949        C  0.94501986  0.61053465  0.33297436    -0.13600
C950        C  0.97879574  0.62614878  0.33299289     0.10400
C951        C  0.51834239  0.64590229  0.33302306     0.12300
C952        C  0.55212038  0.66403776  0.33304195    -0.14500
C953        C  0.71096731  0.60475136  0.03789495    -0.08400
C954        C  0.73129812  0.61491917  0.06866786    -0.09900
C955        C  0.71097646  0.60476347  0.29491827    -0.08400
C956        C  0.73130778  0.61493656  0.26412661    -0.09900
C957        C  0.66357289  0.61014286  0.33308898    -0.13600
C958        C  0.64541882  0.62573593  0.99974873     0.10400
C959        C  0.62574073  0.64556860  0.99973178     0.12300
C960        C  0.61026805  0.66383459  0.99971772    -0.14500
C961        C  0.61532107  0.88210385  0.26410653    -0.07800
C962        C  0.60511283  0.89221533  0.29488985    -0.09900
C963        C  0.60508782  0.89220088  0.03787032    -0.08400
C964        C  0.61529460  0.88209037  0.06864597    -0.09900
C965        C  0.66360160  0.55193434  0.33308004    -0.13600
C966        C  0.64547254  0.51817803  0.33307158     0.10400
C967        C  0.62581787  0.97865872  0.33305870     0.12300
C968        C  0.61035222  0.94491362  0.33305040    -0.14500
C969        C  0.89217288  0.78580407  0.29481548    -0.08400
C970        C  0.88195631  0.76548359  0.26403918    -0.09900
C971        C  0.89214868  0.78579392  0.03779413    -0.08400
C972        C  0.88193096  0.76547105  0.06857801    -0.09900
C973        C  0.55218977  0.88655997  0.33304457    -0.13600
C974        C  0.51841367  0.87094273  0.33302432     0.10400
C975        C  0.97886696  0.85118921  0.33299310     0.12300
C976        C  0.94508877  0.83305663  0.33297307    -0.14500
C977        C  0.88694681  0.83327123  0.33296803    -0.13600
C978        C  0.87147700  0.85153988  0.33295955     0.10400
C979        C  0.85179883  0.87137238  0.33294612     0.12300
C980        C  0.83364201  0.88696244  0.33293721    -0.14500
C981        C  0.90415006  0.80960127  0.66630341     0.02400
C982        C  0.59312573  0.90403032  0.66638143     0.02400
C983        C  0.68715497  0.59283637  0.66641395     0.02400
C984        C  0.59305849  0.68749894  0.33304250     0.02400
C985        C  0.90408450  0.59307066  0.66630778     0.02400
C986        C  0.81005443  0.90426286  0.66626974     0.02400
Fe987      Fe  0.60986693  0.80415103  0.49971117     1.65800
Fe988      Fe  0.69330764  0.80417811  0.49965432     1.73200
Fe989      Fe  0.69333522  0.88757229  0.49966142     1.54400
O990        O  0.66051315  0.89109597  0.45213578    -0.76800
O991        O  0.72965528  0.83696945  0.54720142    -0.75100
O992        O  0.60633672  0.83692386  0.45215234    -0.79300
O993        O  0.60634410  0.83694417  0.54725600    -0.74200
O994        O  0.72966642  0.89111659  0.45207518    -0.75900
O995        O  0.66048062  0.76782928  0.54721414    -0.78700
C996        C  0.62802255  0.86943242  0.56191376     1.02100
C997        C  0.62800203  0.86942183  0.43749066     1.09500
O998        O  0.66550422  0.83196759  0.49967563    -1.07700
O999        O  0.66049153  0.76785647  0.45210083    -0.70100
O1000       O  0.60631078  0.76781917  0.45217066    -0.73600
O1001       O  0.66054115  0.89109529  0.54725070    -0.74300
C1002       C  0.62797243  0.75700250  0.43748102     1.01000
O1003       O  0.60632533  0.76784243  0.54727412    -0.72200
O1004       O  0.72967231  0.83699088  0.45209589    -0.77400
C1005       C  0.74051815  0.86946512  0.56184161     1.03600
C1006       C  0.74051073  0.86947451  0.43742342     1.09500
O1007       O  0.72969519  0.89111845  0.54718064    -0.73100
C1008       C  0.62797840  0.75700007  0.56190335     1.07800
Fe1009     Fe  0.88734246  0.69295314  0.49964008     1.65800
Fe1010     Fe  0.80387804  0.60952813  0.49969582     1.73200
Fe1011     Fe  0.80389789  0.69291845  0.49968930     1.54400
O1012       O  0.83673114  0.72926932  0.54721474    -0.76800
O1013       O  0.76753985  0.60597747  0.45214829    -0.75100
O1014       O  0.89089116  0.72926519  0.54719879    -0.79300
O1015       O  0.89088456  0.72927854  0.45209575    -0.74200
O1016       O  0.76755723  0.66012766  0.54727495    -0.75900
O1017       O  0.83669390  0.60600030  0.45213558    -0.78700
C1018       C  0.86921887  0.74009432  0.43743806     1.02100
C1019       C  0.86923851  0.74010380  0.56186029     1.09500
O1020       O  0.83170516  0.66513280  0.49967509    -1.07700
O1021       O  0.83668225  0.60601615  0.54725017    -0.70100
O1022       O  0.89087937  0.66016759  0.54718074    -0.73600
O1023       O  0.83670387  0.72924099  0.45210117    -0.74300
C1024       C  0.86920492  0.62768243  0.56187014     1.01000
O1025       O  0.89086560  0.66017668  0.45207670    -0.72200
O1026       O  0.76752208  0.60598143  0.54725412    -0.77400
C1027       C  0.75669172  0.62761723  0.43750832     1.03600
C1028       C  0.75669821  0.62763352  0.56192652     1.09500
O1029       O  0.76752922  0.66010121  0.45216972    -0.73100
C1030       C  0.86919989  0.62767454  0.43744700     1.07800
C1031       C  0.76590106  0.88216981  0.40188999    -0.08400
C1032       C  0.78623252  0.89233957  0.37109830    -0.09900
C1033       C  0.76591185  0.88216255  0.59734874    -0.08400
C1034       C  0.78624251  0.89233688  0.62812179    -0.09900
C1035       C  0.88191617  0.61501913  0.59738293    -0.08400
C1036       C  0.89212373  0.60490716  0.62815678    -0.09900
C1037       C  0.88189957  0.61499983  0.40192243    -0.08400
C1038       C  0.89210362  0.60488617  0.37113734    -0.09900
C1039       C  0.83360226  0.94516554  0.66626172    -0.13600
C1040       C  0.85172850  0.97892200  0.66626875     0.10400
C1041       C  0.87138296  0.51844134  0.66628556     0.12300
C1042       C  0.88685152  0.55218668  0.66629941    -0.14500
C1043       C  0.61525054  0.73162404  0.40196740    -0.08400
C1044       C  0.60503350  0.71130145  0.37119285    -0.09900
C1045       C  0.60505455  0.71130098  0.62821419    -0.08400
C1046       C  0.61526850  0.73162192  0.59742863    -0.09900
C1047       C  0.94501982  0.61053453  0.66630766    -0.13600
C1048       C  0.97879566  0.62614866  0.66632624     0.10400
C1049       C  0.51834234  0.64590225  0.66635634     0.12300
C1050       C  0.55212034  0.66403774  0.66637525    -0.14500
C1051       C  0.71096733  0.60475141  0.37122815    -0.08400
C1052       C  0.73129815  0.61491926  0.40200107    -0.09900
C1053       C  0.71097648  0.60476349  0.62825167    -0.08400
C1054       C  0.73130774  0.61493655  0.59745991    -0.09900
C1055       C  0.66357292  0.61014295  0.66642235    -0.13600
C1056       C  0.64541881  0.62573595  0.33308203     0.10400
C1057       C  0.62574079  0.64556857  0.33306511     0.12300
C1058       C  0.61026808  0.66383462  0.33305107    -0.14500
C1059       C  0.61532106  0.88210382  0.59743989    -0.07800
C1060       C  0.60511282  0.89221529  0.62822320    -0.09900
C1061       C  0.60508782  0.89220094  0.37120366    -0.08400
C1062       C  0.61529461  0.88209037  0.40197931    -0.09900
C1063       C  0.66360161  0.55193436  0.66641346    -0.13600
C1064       C  0.64547252  0.51817804  0.66640503     0.10400
C1065       C  0.62581790  0.97865869  0.66639212     0.12300
C1066       C  0.61035226  0.94491360  0.66638379    -0.14500
C1067       C  0.89217287  0.78580413  0.62814882    -0.08400
C1068       C  0.88195624  0.76548356  0.59737252    -0.09900
C1069       C  0.89214862  0.78579392  0.37112746    -0.08400
C1070       C  0.88193086  0.76547108  0.40191137    -0.09900
C1071       C  0.55218981  0.88655998  0.66637794    -0.13600
C1072       C  0.51841368  0.87094276  0.66635762     0.10400
C1073       C  0.97886703  0.85118922  0.66632638     0.12300
C1074       C  0.94508880  0.83305667  0.66630635    -0.14500
C1075       C  0.88694688  0.83327132  0.66630141    -0.13600
C1076       C  0.87147705  0.85153998  0.66629297     0.10400
C1077       C  0.85179885  0.87137241  0.66627958     0.12300
C1078       C  0.83364201  0.88696249  0.66627065    -0.14500
C1079       C  0.90415007  0.80960124  0.99963678     0.02400
C1080       C  0.59312573  0.90403034  0.99971471     0.02400
C1081       C  0.68715497  0.59283633  0.99974730     0.02400
C1082       C  0.59305843  0.68749897  0.66637578     0.02400
C1083       C  0.90408455  0.59307070  0.99964113     0.02400
C1084       C  0.81005447  0.90426288  0.99960299     0.02400
Fe1085     Fe  0.60986689  0.80415101  0.83304454     1.65800
Fe1086     Fe  0.69330758  0.80417806  0.83298767     1.73200
Fe1087     Fe  0.69333520  0.88757227  0.83299475     1.54400
O1088       O  0.66051314  0.89109595  0.78546909    -0.76800
O1089       O  0.72965519  0.83696941  0.88053478    -0.75100
O1090       O  0.60633671  0.83692384  0.78548569    -0.79300
O1091       O  0.60634409  0.83694418  0.88058936    -0.74200
O1092       O  0.72966639  0.89111650  0.78540849    -0.75900
O1093       O  0.66048053  0.76782924  0.88054748    -0.78700
C1094       C  0.62802252  0.86943243  0.89524710     1.02100
C1095       C  0.62800199  0.86942178  0.77082402     1.09500
O1096       O  0.66550419  0.83196757  0.83300897    -1.07700
O1097       O  0.66049144  0.76785642  0.78543421    -0.70100
O1098       O  0.60631068  0.76781911  0.78550407    -0.73600
O1099       O  0.66054114  0.89109532  0.88058396    -0.74300
C1100       C  0.62797234  0.75700240  0.77081440     1.01000
O1101       O  0.60632526  0.76784242  0.88060749    -0.72200
O1102       O  0.72967228  0.83699080  0.78542920    -0.77400
C1103       C  0.74051813  0.86946507  0.89517502     1.03600
C1104       C  0.74051063  0.86947446  0.77075679     1.09500
O1105       O  0.72969516  0.89111845  0.88051394    -0.73100
C1106       C  0.62797836  0.75700003  0.89523669     1.07800
Fe1107     Fe  0.88734251  0.69295316  0.83297338     1.65800
Fe1108     Fe  0.80387806  0.60952813  0.83302920     1.73200
Fe1109     Fe  0.80389797  0.69291847  0.83302262     1.54400
O1110       O  0.83673124  0.72926936  0.88054806    -0.76800
O1111       O  0.76753990  0.60597750  0.78548163    -0.75100
O1112       O  0.89089127  0.72926525  0.88053212    -0.79300
O1113       O  0.89088461  0.72927850  0.78542900    -0.74200
O1114       O  0.76755730  0.66012767  0.88060832    -0.75900
O1115       O  0.83669393  0.60600026  0.78546898    -0.78700
C1116       C  0.86921894  0.74009433  0.77077134     1.02100
C1117       C  0.86923858  0.74010384  0.89519361     1.09500
O1118       O  0.83170522  0.66513280  0.83300839    -1.07700
O1119       O  0.83668230  0.60601622  0.88058358    -0.70100
O1120       O  0.89087942  0.66016766  0.88051405    -0.73600
O1121       O  0.83670395  0.72924103  0.78543450    -0.74300
C1122       C  0.86920495  0.62768248  0.89520348     1.01000
O1123       O  0.89086562  0.66017665  0.78541000    -0.72200
O1124       O  0.76752211  0.60598143  0.88058749    -0.77400
C1125       C  0.75669176  0.62761720  0.77084165     1.03600
C1126       C  0.75669826  0.62763358  0.89525991     1.09500
O1127       O  0.76752929  0.66010125  0.78550306    -0.73100
C1128       C  0.86919992  0.62767452  0.77078037     1.07800
C1129       C  0.76590103  0.88216975  0.73522322    -0.08400
C1130       C  0.78623245  0.89233952  0.70443169    -0.09900
C1131       C  0.76591174  0.88216247  0.93068204    -0.08400
C1132       C  0.78624253  0.89233688  0.96145516    -0.09900
C1133       C  0.88191626  0.61501924  0.93071630    -0.08400
C1134       C  0.89212377  0.60490721  0.96149010    -0.09900
C1135       C  0.88189956  0.61499976  0.73525572    -0.08400
C1136       C  0.89210356  0.60488611  0.70447062    -0.09900
C1137       C  0.83360225  0.94516551  0.99959493    -0.13600
C1138       C  0.85172855  0.97892206  0.99960195     0.10400
C1139       C  0.87138307  0.51844141  0.99961886     0.12300
C1140       C  0.88685158  0.55218668  0.99963277    -0.14500
C1141       C  0.61525047  0.73162400  0.73530081    -0.08400
C1142       C  0.60503343  0.71130143  0.70452615    -0.09900
C1143       C  0.60505456  0.71130093  0.96154756    -0.08400
C1144       C  0.61526845  0.73162185  0.93076197    -0.09900
C1145       C  0.94501982  0.61053457  0.99964101    -0.13600
C1146       C  0.97879574  0.62614874  0.99965964     0.10400
C1147       C  0.51834233  0.64590229  0.99968975     0.12300
C1148       C  0.55212032  0.66403772  0.99970865    -0.14500
C1149       C  0.71096734  0.60475144  0.70456152    -0.08400
C1150       C  0.73129819  0.61491927  0.73533447    -0.09900
C1151       C  0.71097650  0.60476347  0.96158506    -0.08400
C1152       C  0.73130778  0.61493657  0.93079329    -0.09900
C1153       C  0.66357290  0.61014293  0.99975569    -0.13600
C1154       C  0.64541887  0.62573605  0.66641536     0.10400
C1155       C  0.62574076  0.64556864  0.66639835     0.12300
C1156       C  0.61026803  0.66383463  0.66638429    -0.14500
C1157       C  0.61532113  0.88210388  0.93077316    -0.07800
C1158       C  0.60511282  0.89221536  0.96155651    -0.09900
C1159       C  0.60508781  0.89220087  0.70453701    -0.08400
C1160       C  0.61529455  0.88209030  0.73531265    -0.09900
C1161       C  0.66360161  0.55193434  0.99974675    -0.13600
C1162       C  0.64547254  0.51817801  0.99973830     0.10400
C1163       C  0.62581791  0.97865871  0.99972542     0.12300
C1164       C  0.61035223  0.94491361  0.99971706    -0.14500
C1165       C  0.89217292  0.78580412  0.96148218    -0.08400
C1166       C  0.88195631  0.76548359  0.93070589    -0.09900
C1167       C  0.89214868  0.78579397  0.70446076    -0.08400
C1168       C  0.88193093  0.76547109  0.73524467    -0.09900
C1169       C  0.55218979  0.88655998  0.99971120    -0.13600
C1170       C  0.51841368  0.87094278  0.99969091     0.10400
C1171       C  0.97886701  0.85118916  0.99965975     0.12300
C1172       C  0.94508882  0.83305660  0.99963974    -0.14500
C1173       C  0.88694694  0.83327131  0.99963473    -0.13600
C1174       C  0.87147711  0.85153999  0.99962620     0.10400
C1175       C  0.85179893  0.87137243  0.99961285     0.12300
C1176       C  0.83364208  0.88696251  0.99960393    -0.14500
loop_ 
_geom_bond_atom_site_label_1 
_geom_bond_atom_site_label_2 
_geom_bond_distance 
_geom_bond_site_symmetry_2 
_ccdc_geom_bond_type 
C1           C87   1.467       .  S
C1           C94   1.465       .  S
C1           C95   1.465       .  S
C1          C187   1.467       .  S
C2           C80   1.467       .  S
C2           C86   1.465       .  S
C2           C91   1.465       .  S
C2          C179   1.467       .  S
C3           C73   1.467       .  S
C3           C75   1.465       .  S
C3           C83   1.465       .  S
C3          C169   1.467       .  S
C4           C64   1.467   1_556  S
C4           C78   1.465       .  S
C4          C261   1.467       .  S
C4          C266   1.465       .  S
C5           C56   1.467       .  S
C5           C62   1.465       .  S
C5           C67   1.465       .  S
C5          C156   1.467       .  S
C6           C54   1.467       .  S
C6           C59   1.465       .  S
C6           C98   1.465       .  S
C6          C150   1.467       .  S
Fe7          O23   2.065       .  S
Fe7          O13   2.065       .  S
Fe7          O20   2.065       .  S
Fe7          O12   2.065       .  S
Fe7          O18   1.984       .  S
Fe8          O11   2.065       .  S
Fe8          O15   2.065       .  S
Fe8          O19   2.065       .  S
Fe8          O24   2.065       .  S
Fe8          O18   1.984       .  S
Fe9          O27   2.065       .  S
Fe9          O14   2.065       .  S
Fe9          O21   2.065       .  S
Fe9          O10   2.065       .  S
Fe9          O18   1.984       .  S
O10          C17   1.267       .  A
O11          C25   1.267       .  A
O12          C17   1.267       .  A
O13          C16   1.267       .  A
O14          C26   1.267       .  A
O15          C28   1.267       .  A
C16          O21   1.267       .  A
C16          C79   1.435       .  S
C17          C82   1.435       .  S
O19          C22   1.267       .  A
O20          C22   1.267       .  A
C22          C63   1.435       .  S
O23          C28   1.267       .  A
O24          C26   1.267       .  A
C25          O27   1.267       .  A
C25          C53   1.435       .  S
C26          C51   1.435       .  S
C28          C66   1.435       .  S
Fe29         O45   2.065       .  S
Fe29         O35   2.065       .  S
Fe29         O42   2.065       .  S
Fe29         O34   2.065       .  S
Fe29         O40   1.984       .  S
Fe30         O33   2.065       .  S
Fe30         O37   2.065       .  S
Fe30         O41   2.065       .  S
Fe30         O46   2.065       .  S
Fe30         O40   1.984       .  S
Fe31         O49   2.065       .  S
Fe31         O36   2.065       .  S
Fe31         O43   2.065       .  S
Fe31         O32   2.065       .  S
Fe31         O40   1.984       .  S
O32          C39   1.267       .  A
O33          C47   1.267       .  A
O34          C39   1.267       .  A
O35          C38   1.267       .  A
O36          C48   1.267       .  A
O37          C50   1.267       .  A
C38          O43   1.267       .  A
C38          C90   1.435       .  S
C39          C88   1.435       .  S
O41          C44   1.267       .  A
O42          C44   1.267       .  A
C44          C55   1.435       .  S
O45          C50   1.267       .  A
O46          C48   1.267       .  A
C47          O49   1.267       .  A
C47          C72   1.435       .  S
C48          C74   1.435       .  S
C50          C57   1.435       .  S
C51          C52   1.207       .  T
C52         C202   1.467   1_554  S
C53          C54   1.207       .  T
C55          C56   1.207       .  T
C57          C58   1.207       .  T
C58         C201   1.467   1_554  S
C59          C60   1.205       .  T
C60         C355   1.410       .  S
C61          C62   1.205       .  T
C61         C354   1.410   1_545  S
C63          C64   1.207       .  T
C65         C102   1.467       .  S
C65          C66   1.207       .  T
C67          C68   1.206       .  T
C68         C657   1.410       .  S
C69          C70   1.206       .  T
C69         C656   1.410   1_455  S
C70         C102   1.465       .  S
C71         C199   1.467   1_554  S
C71          C72   1.207       .  T
C73          C74   1.207       .  T
C75         C174   1.205       .  T
C76         C271   1.205       .  T
C76          C77   1.410       .  S
C77          C78   1.205       .  T
C79          C80   1.207       .  T
C81         C198   1.467   1_554  S
C81          C82   1.207       .  T
C83          C84   1.205       .  T
C84         C379   1.410   1_545  S
C85          C86   1.205       .  T
C85         C378   1.410       .  S
C87          C88   1.207       .  T
C89         C197   1.467   1_554  S
C89          C90   1.207       .  T
C91          C92   1.206       .  T
C92         C681   1.410   1_455  S
C93          C94   1.206       .  T
C93         C680   1.410       .  S
C95          C96   1.205       .  T
C96          C97   1.410       .  S
C97          C98   1.205       .  T
C99         C185   1.467       .  S
C99         C285   1.467       .  S
C99         C192   1.465       .  S
C99         C193   1.465       .  S
C100        C178   1.467       .  S
C100        C277   1.467       .  S
C100        C184   1.465       .  S
C100        C189   1.465       .  S
C101        C267   1.467       .  S
C101        C171   1.467       .  S
C101        C173   1.465       .  S
C101        C181   1.465       .  S
C102        C162   1.467       .  S
C102        C176   1.465       .  S
C103        C154   1.467       .  S
C103        C254   1.467       .  S
C103        C160   1.465       .  S
C103        C165   1.465       .  S
C104        C248   1.467       .  S
C104        C152   1.467       .  S
C104        C157   1.465       .  S
C104        C196   1.465       .  S
Fe105       O121   2.065       .  S
Fe105       O111   2.065       .  S
Fe105       O118   2.065       .  S
Fe105       O110   2.065       .  S
Fe105       O116   1.984       .  S
Fe106       O109   2.065       .  S
Fe106       O113   2.065       .  S
Fe106       O117   2.065       .  S
Fe106       O122   2.065       .  S
Fe106       O116   1.984       .  S
Fe107       O125   2.065       .  S
Fe107       O112   2.065       .  S
Fe107       O119   2.065       .  S
Fe107       O108   2.065       .  S
Fe107       O116   1.984       .  S
O108        C115   1.267       .  A
O109        C123   1.267       .  A
O110        C115   1.267       .  A
O111        C114   1.267       .  A
O112        C124   1.267       .  A
O113        C126   1.267       .  A
C114        O119   1.267       .  A
C114        C177   1.435       .  S
C115        C180   1.435       .  S
O117        C120   1.267       .  A
O118        C120   1.267       .  A
C120        C161   1.435       .  S
O121        C126   1.267       .  A
O122        C124   1.267       .  A
C123        O125   1.267       .  A
C123        C151   1.435       .  S
C124        C149   1.435       .  S
C126        C164   1.435       .  S
Fe127       O143   2.065       .  S
Fe127       O133   2.065       .  S
Fe127       O140   2.065       .  S
Fe127       O132   2.065       .  S
Fe127       O138   1.984       .  S
Fe128       O131   2.065       .  S
Fe128       O135   2.065       .  S
Fe128       O139   2.065       .  S
Fe128       O144   2.065       .  S
Fe128       O138   1.984       .  S
Fe129       O147   2.065       .  S
Fe129       O134   2.065       .  S
Fe129       O141   2.065       .  S
Fe129       O130   2.065       .  S
Fe129       O138   1.984       .  S
O130        C137   1.267       .  A
O131        C145   1.267       .  A
O132        C137   1.267       .  A
O133        C136   1.267       .  A
O134        C146   1.267       .  A
O135        C148   1.267       .  A
C136        O141   1.267       .  A
C136        C188   1.435       .  S
C137        C186   1.435       .  S
O139        C142   1.267       .  A
O140        C142   1.267       .  A
C142        C153   1.435       .  S
O143        C148   1.267       .  A
O144        C146   1.267       .  A
C145        O147   1.267       .  A
C145        C170   1.435       .  S
C146        C172   1.435       .  S
C148        C155   1.435       .  S
C149        C150   1.207       .  T
C151        C152   1.207       .  T
C153        C154   1.207       .  T
C155        C156   1.207       .  T
C157        C158   1.205       .  T
C158        C453   1.410       .  S
C159        C160   1.205       .  T
C159        C452   1.410   1_545  S
C161        C162   1.207       .  T
C163        C200   1.467       .  S
C163        C164   1.207       .  T
C165        C166   1.206       .  T
C166        C755   1.410       .  S
C167        C168   1.206       .  T
C167        C754   1.410   1_455  S
C168        C200   1.465       .  S
C169        C170   1.207       .  T
C171        C172   1.207       .  T
C173        C272   1.205       .  T
C174        C175   1.410       .  S
C175        C176   1.205       .  T
C177        C178   1.207       .  T
C179        C180   1.207       .  T
C181        C182   1.205       .  T
C182        C477   1.410   1_545  S
C183        C184   1.205       .  T
C183        C476   1.410       .  S
C185        C186   1.207       .  T
C187        C188   1.207       .  T
C189        C190   1.206       .  T
C190        C779   1.410   1_455  S
C191        C192   1.206       .  T
C191        C778   1.410       .  S
C193        C194   1.205       .  T
C194        C195   1.410       .  S
C195        C196   1.205       .  T
C197        C283   1.467       .  S
C197        C290   1.465       .  S
C197        C291   1.465       .  S
C198        C276   1.467       .  S
C198        C282   1.465       .  S
C198        C287   1.465       .  S
C199        C269   1.467       .  S
C199        C271   1.465       .  S
C199        C279   1.465       .  S
C200        C260   1.467       .  S
C200        C274   1.465       .  S
C201        C252   1.467       .  S
C201        C258   1.465       .  S
C201        C263   1.465       .  S
C202        C250   1.467       .  S
C202        C255   1.465       .  S
C202        C294   1.465       .  S
Fe203       O219   2.065       .  S
Fe203       O209   2.065       .  S
Fe203       O216   2.065       .  S
Fe203       O208   2.065       .  S
Fe203       O214   1.984       .  S
Fe204       O207   2.065       .  S
Fe204       O211   2.065       .  S
Fe204       O215   2.065       .  S
Fe204       O220   2.065       .  S
Fe204       O214   1.984       .  S
Fe205       O223   2.065       .  S
Fe205       O210   2.065       .  S
Fe205       O217   2.065       .  S
Fe205       O206   2.065       .  S
Fe205       O214   1.984       .  S
O206        C213   1.267       .  A
O207        C221   1.267       .  A
O208        C213   1.267       .  A
O209        C212   1.267       .  A
O210        C222   1.267       .  A
O211        C224   1.267       .  A
C212        O217   1.267       .  A
C212        C275   1.435       .  S
C213        C278   1.435       .  S
O215        C218   1.267       .  A
O216        C218   1.267       .  A
C218        C259   1.435       .  S
O219        C224   1.267       .  A
O220        C222   1.267       .  A
C221        O223   1.267       .  A
C221        C249   1.435       .  S
C222        C247   1.435       .  S
C224        C262   1.435       .  S
Fe225       O241   2.065       .  S
Fe225       O231   2.065       .  S
Fe225       O238   2.065       .  S
Fe225       O230   2.065       .  S
Fe225       O236   1.984       .  S
Fe226       O229   2.065       .  S
Fe226       O233   2.065       .  S
Fe226       O237   2.065       .  S
Fe226       O242   2.065       .  S
Fe226       O236   1.984       .  S
Fe227       O245   2.065       .  S
Fe227       O232   2.065       .  S
Fe227       O239   2.065       .  S
Fe227       O228   2.065       .  S
Fe227       O236   1.984       .  S
O228        C235   1.267       .  A
O229        C243   1.267       .  A
O230        C235   1.267       .  A
O231        C234   1.267       .  A
O232        C244   1.267       .  A
O233        C246   1.267       .  A
C234        O239   1.267       .  A
C234        C286   1.435       .  S
C235        C284   1.435       .  S
O237        C240   1.267       .  A
O238        C240   1.267       .  A
C240        C251   1.435       .  S
O241        C246   1.267       .  A
O242        C244   1.267       .  A
C243        O245   1.267       .  A
C243        C268   1.435       .  S
C244        C270   1.435       .  S
C246        C253   1.435       .  S
C247        C248   1.207       .  T
C249        C250   1.207       .  T
C251        C252   1.207       .  T
C253        C254   1.207       .  T
C255        C256   1.205       .  T
C256        C551   1.410       .  S
C257        C258   1.205       .  T
C257        C550   1.410   1_545  S
C259        C260   1.207       .  T
C261        C262   1.207       .  T
C263        C264   1.206       .  T
C264        C853   1.410       .  S
C265        C266   1.206       .  T
C265        C852   1.410   1_455  S
C267        C268   1.207       .  T
C269        C270   1.207       .  T
C272        C273   1.410       .  S
C273        C274   1.205       .  T
C275        C276   1.207       .  T
C277        C278   1.207       .  T
C279        C280   1.205       .  T
C280        C575   1.410   1_545  S
C281        C282   1.205       .  T
C281        C574   1.410       .  S
C283        C284   1.207       .  T
C285        C286   1.207       .  T
C287        C288   1.206       .  T
C288        C877   1.410   1_455  S
C289        C290   1.206       .  T
C289        C876   1.410       .  S
C291        C292   1.205       .  T
C292        C293   1.410       .  S
C293        C294   1.205       .  T
C295        C381   1.467       .  S
C295        C481   1.467       .  S
C295        C388   1.465       .  S
C295        C389   1.465       .  S
C296        C374   1.467       .  S
C296        C473   1.467       .  S
C296        C380   1.465       .  S
C296        C385   1.465       .  S
C297        C463   1.467       .  S
C297        C367   1.467       .  S
C297        C369   1.465       .  S
C297        C377   1.465       .  S
C298        C358   1.467   1_556  S
C298        C555   1.467       .  S
C298        C560   1.465       .  S
C298        C372   1.465       .  S
C299        C350   1.467       .  S
C299        C450   1.467       .  S
C299        C356   1.465       .  S
C299        C361   1.465       .  S
C300        C444   1.467       .  S
C300        C348   1.467       .  S
C300        C353   1.465       .  S
C300        C392   1.465       .  S
Fe301       O317   2.065       .  S
Fe301       O307   2.065       .  S
Fe301       O314   2.065       .  S
Fe301       O306   2.065       .  S
Fe301       O312   1.984       .  S
Fe302       O305   2.065       .  S
Fe302       O309   2.065       .  S
Fe302       O313   2.065       .  S
Fe302       O318   2.065       .  S
Fe302       O312   1.984       .  S
Fe303       O321   2.065       .  S
Fe303       O308   2.065       .  S
Fe303       O315   2.065       .  S
Fe303       O304   2.065       .  S
Fe303       O312   1.984       .  S
O304        C311   1.267       .  A
O305        C319   1.267       .  A
O306        C311   1.267       .  A
O307        C310   1.267       .  A
O308        C320   1.267       .  A
O309        C322   1.267       .  A
C310        O315   1.267       .  A
C310        C373   1.435       .  S
C311        C376   1.435       .  S
O313        C316   1.267       .  A
O314        C316   1.267       .  A
C316        C357   1.435       .  S
O317        C322   1.267       .  A
O318        C320   1.267       .  A
C319        O321   1.267       .  A
C319        C347   1.435       .  S
C320        C345   1.435       .  S
C322        C360   1.435       .  S
Fe323       O339   2.065       .  S
Fe323       O329   2.065       .  S
Fe323       O336   2.065       .  S
Fe323       O328   2.065       .  S
Fe323       O334   1.984       .  S
Fe324       O327   2.065       .  S
Fe324       O331   2.065       .  S
Fe324       O335   2.065       .  S
Fe324       O340   2.065       .  S
Fe324       O334   1.984       .  S
Fe325       O343   2.065       .  S
Fe325       O330   2.065       .  S
Fe325       O337   2.065       .  S
Fe325       O326   2.065       .  S
Fe325       O334   1.984       .  S
O326        C333   1.267       .  A
O327        C341   1.267       .  A
O328        C333   1.267       .  A
O329        C332   1.267       .  A
O330        C342   1.267       .  A
O331        C344   1.267       .  A
C332        O337   1.267       .  A
C332        C384   1.435       .  S
C333        C382   1.435       .  S
O335        C338   1.267       .  A
O336        C338   1.267       .  A
C338        C349   1.435       .  S
O339        C344   1.267       .  A
O340        C342   1.267       .  A
C341        O343   1.267       .  A
C341        C366   1.435       .  S
C342        C368   1.435       .  S
C344        C351   1.435       .  S
C345        C346   1.207       .  T
C346        C496   1.467   1_554  S
C347        C348   1.207       .  T
C349        C350   1.207       .  T
C351        C352   1.207       .  T
C352        C495   1.467   1_554  S
C353        C354   1.205       .  T
C355        C356   1.205       .  T
C357        C358   1.207       .  T
C359        C396   1.467       .  S
C359        C360   1.207       .  T
C361        C362   1.206       .  T
C362        C951   1.410       .  S
C363        C364   1.206       .  T
C363        C950   1.410   1_455  S
C364        C396   1.465       .  S
C365        C493   1.467   1_554  S
C365        C366   1.207       .  T
C367        C368   1.207       .  T
C369        C468   1.205       .  T
C370        C565   1.205       .  T
C370        C371   1.410       .  S
C371        C372   1.205       .  T
C373        C374   1.207       .  T
C375        C492   1.467   1_554  S
C375        C376   1.207       .  T
C377        C378   1.205       .  T
C379        C380   1.205       .  T
C381        C382   1.207       .  T
C383        C491   1.467   1_554  S
C383        C384   1.207       .  T
C385        C386   1.206       .  T
C386        C975   1.410   1_455  S
C387        C388   1.206       .  T
C387        C974   1.410       .  S
C389        C390   1.205       .  T
C390        C391   1.410       .  S
C391        C392   1.205       .  T
C393        C479   1.467       .  S
C393        C579   1.467       .  S
C393        C486   1.465       .  S
C393        C487   1.465       .  S
C394        C472   1.467       .  S
C394        C571   1.467       .  S
C394        C478   1.465       .  S
C394        C483   1.465       .  S
C395        C561   1.467       .  S
C395        C465   1.467       .  S
C395        C467   1.465       .  S
C395        C475   1.465       .  S
C396        C456   1.467       .  S
C396        C470   1.465       .  S
C397        C448   1.467       .  S
C397        C548   1.467       .  S
C397        C454   1.465       .  S
C397        C459   1.465       .  S
C398        C542   1.467       .  S
C398        C446   1.467       .  S
C398        C451   1.465       .  S
C398        C490   1.465       .  S
Fe399       O415   2.065       .  S
Fe399       O405   2.065       .  S
Fe399       O412   2.065       .  S
Fe399       O404   2.065       .  S
Fe399       O410   1.984       .  S
Fe400       O403   2.065       .  S
Fe400       O407   2.065       .  S
Fe400       O411   2.065       .  S
Fe400       O416   2.065       .  S
Fe400       O410   1.984       .  S
Fe401       O419   2.065       .  S
Fe401       O406   2.065       .  S
Fe401       O413   2.065       .  S
Fe401       O402   2.065       .  S
Fe401       O410   1.984       .  S
O402        C409   1.267       .  A
O403        C417   1.267       .  A
O404        C409   1.267       .  A
O405        C408   1.267       .  A
O406        C418   1.267       .  A
O407        C420   1.267       .  A
C408        O413   1.267       .  A
C408        C471   1.435       .  S
C409        C474   1.435       .  S
O411        C414   1.267       .  A
O412        C414   1.267       .  A
C414        C455   1.435       .  S
O415        C420   1.267       .  A
O416        C418   1.267       .  A
C417        O419   1.267       .  A
C417        C445   1.435       .  S
C418        C443   1.435       .  S
C420        C458   1.435       .  S
Fe421       O437   2.065       .  S
Fe421       O427   2.065       .  S
Fe421       O434   2.065       .  S
Fe421       O426   2.065       .  S
Fe421       O432   1.984       .  S
Fe422       O425   2.065       .  S
Fe422       O429   2.065       .  S
Fe422       O433   2.065       .  S
Fe422       O438   2.065       .  S
Fe422       O432   1.984       .  S
Fe423       O441   2.065       .  S
Fe423       O428   2.065       .  S
Fe423       O435   2.065       .  S
Fe423       O424   2.065       .  S
Fe423       O432   1.984       .  S
O424        C431   1.267       .  A
O425        C439   1.267       .  A
O426        C431   1.267       .  A
O427        C430   1.267       .  A
O428        C440   1.267       .  A
O429        C442   1.267       .  A
C430        O435   1.267       .  A
C430        C482   1.435       .  S
C431        C480   1.435       .  S
O433        C436   1.267       .  A
O434        C436   1.267       .  A
C436        C447   1.435       .  S
O437        C442   1.267       .  A
O438        C440   1.267       .  A
C439        O441   1.267       .  A
C439        C464   1.435       .  S
C440        C466   1.435       .  S
C442        C449   1.435       .  S
C443        C444   1.207       .  T
C445        C446   1.207       .  T
C447        C448   1.207       .  T
C449        C450   1.207       .  T
C451        C452   1.205       .  T
C453        C454   1.205       .  T
C455        C456   1.207       .  T
C457        C494   1.467       .  S
C457        C458   1.207       .  T
C459        C460   1.206       .  T
C460       C1049   1.410       .  S
C461        C462   1.206       .  T
C461       C1048   1.410   1_455  S
C462        C494   1.465       .  S
C463        C464   1.207       .  T
C465        C466   1.207       .  T
C467        C566   1.205       .  T
C468        C469   1.410       .  S
C469        C470   1.205       .  T
C471        C472   1.207       .  T
C473        C474   1.207       .  T
C475        C476   1.205       .  T
C477        C478   1.205       .  T
C479        C480   1.207       .  T
C481        C482   1.207       .  T
C483        C484   1.206       .  T
C484       C1073   1.410   1_455  S
C485        C486   1.206       .  T
C485       C1072   1.410       .  S
C487        C488   1.205       .  T
C488        C489   1.410       .  S
C489        C490   1.205       .  T
C491        C577   1.467       .  S
C491        C584   1.465       .  S
C491        C585   1.465       .  S
C492        C570   1.467       .  S
C492        C576   1.465       .  S
C492        C581   1.465       .  S
C493        C563   1.467       .  S
C493        C565   1.465       .  S
C493        C573   1.465       .  S
C494        C554   1.467       .  S
C494        C568   1.465       .  S
C495        C546   1.467       .  S
C495        C552   1.465       .  S
C495        C557   1.465       .  S
C496        C544   1.467       .  S
C496        C549   1.465       .  S
C496        C588   1.465       .  S
Fe497       O513   2.065       .  S
Fe497       O503   2.065       .  S
Fe497       O510   2.065       .  S
Fe497       O502   2.065       .  S
Fe497       O508   1.984       .  S
Fe498       O501   2.065       .  S
Fe498       O505   2.065       .  S
Fe498       O509   2.065       .  S
Fe498       O514   2.065       .  S
Fe498       O508   1.984       .  S
Fe499       O517   2.065       .  S
Fe499       O504   2.065       .  S
Fe499       O511   2.065       .  S
Fe499       O500   2.065       .  S
Fe499       O508   1.984       .  S
O500        C507   1.267       .  A
O501        C515   1.267       .  A
O502        C507   1.267       .  A
O503        C506   1.267       .  A
O504        C516   1.267       .  A
O505        C518   1.267       .  A
C506        O511   1.267       .  A
C506        C569   1.435       .  S
C507        C572   1.435       .  S
O509        C512   1.267       .  A
O510        C512   1.267       .  A
C512        C553   1.435       .  S
O513        C518   1.267       .  A
O514        C516   1.267       .  A
C515        O517   1.267       .  A
C515        C543   1.435       .  S
C516        C541   1.435       .  S
C518        C556   1.435       .  S
Fe519       O535   2.065       .  S
Fe519       O525   2.065       .  S
Fe519       O532   2.065       .  S
Fe519       O524   2.065       .  S
Fe519       O530   1.984       .  S
Fe520       O523   2.065       .  S
Fe520       O527   2.065       .  S
Fe520       O531   2.065       .  S
Fe520       O536   2.065       .  S
Fe520       O530   1.984       .  S
Fe521       O539   2.065       .  S
Fe521       O526   2.065       .  S
Fe521       O533   2.065       .  S
Fe521       O522   2.065       .  S
Fe521       O530   1.984       .  S
O522        C529   1.267       .  A
O523        C537   1.267       .  A
O524        C529   1.267       .  A
O525        C528   1.267       .  A
O526        C538   1.267       .  A
O527        C540   1.267       .  A
C528        O533   1.267       .  A
C528        C580   1.435       .  S
C529        C578   1.435       .  S
O531        C534   1.267       .  A
O532        C534   1.267       .  A
C534        C545   1.435       .  S
O535        C540   1.267       .  A
O536        C538   1.267       .  A
C537        O539   1.267       .  A
C537        C562   1.435       .  S
C538        C564   1.435       .  S
C540        C547   1.435       .  S
C541        C542   1.207       .  T
C543        C544   1.207       .  T
C545        C546   1.207       .  T
C547        C548   1.207       .  T
C549        C550   1.205       .  T
C551        C552   1.205       .  T
C553        C554   1.207       .  T
C555        C556   1.207       .  T
C557        C558   1.206       .  T
C558       C1147   1.410       .  S
C559        C560   1.206       .  T
C559       C1146   1.410   1_455  S
C561        C562   1.207       .  T
C563        C564   1.207       .  T
C566        C567   1.410       .  S
C567        C568   1.205       .  T
C569        C570   1.207       .  T
C571        C572   1.207       .  T
C573        C574   1.205       .  T
C575        C576   1.205       .  T
C577        C578   1.207       .  T
C579        C580   1.207       .  T
C581        C582   1.206       .  T
C582       C1171   1.410   1_455  S
C583        C584   1.206       .  T
C583       C1170   1.410       .  S
C585        C586   1.205       .  T
C586        C587   1.410       .  S
C587        C588   1.205       .  T
C589        C675   1.467       .  S
C589        C775   1.467       .  S
C589        C682   1.465       .  S
C589        C683   1.465       .  S
C590        C668   1.467       .  S
C590        C767   1.467       .  S
C590        C674   1.465       .  S
C590        C679   1.465       .  S
C591        C757   1.467       .  S
C591        C661   1.467       .  S
C591        C663   1.465       .  S
C591        C671   1.465       .  S
C592        C652   1.467   1_556  S
C592        C849   1.467       .  S
C592        C854   1.465       .  S
C592        C666   1.465       .  S
C593        C644   1.467       .  S
C593        C744   1.467       .  S
C593        C650   1.465       .  S
C593        C655   1.465       .  S
C594        C738   1.467       .  S
C594        C642   1.467       .  S
C594        C647   1.465       .  S
C594        C686   1.465       .  S
Fe595       O611   2.065       .  S
Fe595       O601   2.065       .  S
Fe595       O608   2.065       .  S
Fe595       O600   2.065       .  S
Fe595       O606   1.984       .  S
Fe596       O599   2.065       .  S
Fe596       O603   2.065       .  S
Fe596       O607   2.065       .  S
Fe596       O612   2.065       .  S
Fe596       O606   1.984       .  S
Fe597       O615   2.065       .  S
Fe597       O602   2.065       .  S
Fe597       O609   2.065       .  S
Fe597       O598   2.065       .  S
Fe597       O606   1.984       .  S
O598        C605   1.267       .  A
O599        C613   1.267       .  A
O600        C605   1.267       .  A
O601        C604   1.267       .  A
O602        C614   1.267       .  A
O603        C616   1.267       .  A
C604        O609   1.267       .  A
C604        C667   1.435       .  S
C605        C670   1.435       .  S
O607        C610   1.267       .  A
O608        C610   1.267       .  A
C610        C651   1.435       .  S
O611        C616   1.267       .  A
O612        C614   1.267       .  A
C613        O615   1.267       .  A
C613        C641   1.435       .  S
C614        C639   1.435       .  S
C616        C654   1.435       .  S
Fe617       O633   2.065       .  S
Fe617       O623   2.065       .  S
Fe617       O630   2.065       .  S
Fe617       O622   2.065       .  S
Fe617       O628   1.984       .  S
Fe618       O621   2.065       .  S
Fe618       O625   2.065       .  S
Fe618       O629   2.065       .  S
Fe618       O634   2.065       .  S
Fe618       O628   1.984       .  S
Fe619       O637   2.065       .  S
Fe619       O624   2.065       .  S
Fe619       O631   2.065       .  S
Fe619       O620   2.065       .  S
Fe619       O628   1.984       .  S
O620        C627   1.267       .  A
O621        C635   1.267       .  A
O622        C627   1.267       .  A
O623        C626   1.267       .  A
O624        C636   1.267       .  A
O625        C638   1.267       .  A
C626        O631   1.267       .  A
C626        C678   1.435       .  S
C627        C676   1.435       .  S
O629        C632   1.267       .  A
O630        C632   1.267       .  A
C632        C643   1.435       .  S
O633        C638   1.267       .  A
O634        C636   1.267       .  A
C635        O637   1.267       .  A
C635        C660   1.435       .  S
C636        C662   1.435       .  S
C638        C645   1.435       .  S
C639        C640   1.207       .  T
C640        C790   1.467   1_554  S
C641        C642   1.207       .  T
C643        C644   1.207       .  T
C645        C646   1.207       .  T
C646        C789   1.467   1_554  S
C647        C648   1.205       .  T
C648        C943   1.410       .  S
C649        C650   1.205       .  T
C649        C942   1.410   1_545  S
C651        C652   1.207       .  T
C653        C690   1.467       .  S
C653        C654   1.207       .  T
C655        C656   1.206       .  T
C657        C658   1.206       .  T
C658        C690   1.465       .  S
C659        C787   1.467   1_554  S
C659        C660   1.207       .  T
C661        C662   1.207       .  T
C663        C762   1.205       .  T
C664        C859   1.205       .  T
C664        C665   1.410       .  S
C665        C666   1.205       .  T
C667        C668   1.207       .  T
C669        C786   1.467   1_554  S
C669        C670   1.207       .  T
C671        C672   1.205       .  T
C672        C967   1.410   1_545  S
C673        C674   1.205       .  T
C673        C966   1.410       .  S
C675        C676   1.207       .  T
C677        C785   1.467   1_554  S
C677        C678   1.207       .  T
C679        C680   1.206       .  T
C681        C682   1.206       .  T
C683        C684   1.205       .  T
C684        C685   1.410       .  S
C685        C686   1.205       .  T
C687        C773   1.467       .  S
C687        C873   1.467       .  S
C687        C780   1.465       .  S
C687        C781   1.465       .  S
C688        C766   1.467       .  S
C688        C865   1.467       .  S
C688        C772   1.465       .  S
C688        C777   1.465       .  S
C689        C855   1.467       .  S
C689        C759   1.467       .  S
C689        C761   1.465       .  S
C689        C769   1.465       .  S
C690        C750   1.467       .  S
C690        C764   1.465       .  S
C691        C742   1.467       .  S
C691        C842   1.467       .  S
C691        C748   1.465       .  S
C691        C753   1.465       .  S
C692        C836   1.467       .  S
C692        C740   1.467       .  S
C692        C745   1.465       .  S
C692        C784   1.465       .  S
Fe693       O709   2.065       .  S
Fe693       O699   2.065       .  S
Fe693       O706   2.065       .  S
Fe693       O698   2.065       .  S
Fe693       O704   1.984       .  S
Fe694       O697   2.065       .  S
Fe694       O701   2.065       .  S
Fe694       O705   2.065       .  S
Fe694       O710   2.065       .  S
Fe694       O704   1.984       .  S
Fe695       O713   2.065       .  S
Fe695       O700   2.065       .  S
Fe695       O707   2.065       .  S
Fe695       O696   2.065       .  S
Fe695       O704   1.984       .  S
O696        C703   1.267       .  A
O697        C711   1.267       .  A
O698        C703   1.267       .  A
O699        C702   1.267       .  A
O700        C712   1.267       .  A
O701        C714   1.267       .  A
C702        O707   1.267       .  A
C702        C765   1.435       .  S
C703        C768   1.435       .  S
O705        C708   1.267       .  A
O706        C708   1.267       .  A
C708        C749   1.435       .  S
O709        C714   1.267       .  A
O710        C712   1.267       .  A
C711        O713   1.267       .  A
C711        C739   1.435       .  S
C712        C737   1.435       .  S
C714        C752   1.435       .  S
Fe715       O731   2.065       .  S
Fe715       O721   2.065       .  S
Fe715       O728   2.065       .  S
Fe715       O720   2.065       .  S
Fe715       O726   1.984       .  S
Fe716       O719   2.065       .  S
Fe716       O723   2.065       .  S
Fe716       O727   2.065       .  S
Fe716       O732   2.065       .  S
Fe716       O726   1.984       .  S
Fe717       O735   2.065       .  S
Fe717       O722   2.065       .  S
Fe717       O729   2.065       .  S
Fe717       O718   2.065       .  S
Fe717       O726   1.984       .  S
O718        C725   1.267       .  A
O719        C733   1.267       .  A
O720        C725   1.267       .  A
O721        C724   1.267       .  A
O722        C734   1.267       .  A
O723        C736   1.267       .  A
C724        O729   1.267       .  A
C724        C776   1.435       .  S
C725        C774   1.435       .  S
O727        C730   1.267       .  A
O728        C730   1.267       .  A
C730        C741   1.435       .  S
O731        C736   1.267       .  A
O732        C734   1.267       .  A
C733        O735   1.267       .  A
C733        C758   1.435       .  S
C734        C760   1.435       .  S
C736        C743   1.435       .  S
C737        C738   1.207       .  T
C739        C740   1.207       .  T
C741        C742   1.207       .  T
C743        C744   1.207       .  T
C745        C746   1.205       .  T
C746       C1041   1.410       .  S
C747        C748   1.205       .  T
C747       C1040   1.410   1_545  S
C749        C750   1.207       .  T
C751        C788   1.467       .  S
C751        C752   1.207       .  T
C753        C754   1.206       .  T
C755        C756   1.206       .  T
C756        C788   1.465       .  S
C757        C758   1.207       .  T
C759        C760   1.207       .  T
C761        C860   1.205       .  T
C762        C763   1.410       .  S
C763        C764   1.205       .  T
C765        C766   1.207       .  T
C767        C768   1.207       .  T
C769        C770   1.205       .  T
C770       C1065   1.410   1_545  S
C771        C772   1.205       .  T
C771       C1064   1.410       .  S
C773        C774   1.207       .  T
C775        C776   1.207       .  T
C777        C778   1.206       .  T
C779        C780   1.206       .  T
C781        C782   1.205       .  T
C782        C783   1.410       .  S
C783        C784   1.205       .  T
C785        C871   1.467       .  S
C785        C878   1.465       .  S
C785        C879   1.465       .  S
C786        C864   1.467       .  S
C786        C870   1.465       .  S
C786        C875   1.465       .  S
C787        C857   1.467       .  S
C787        C859   1.465       .  S
C787        C867   1.465       .  S
C788        C848   1.467       .  S
C788        C862   1.465       .  S
C789        C840   1.467       .  S
C789        C846   1.465       .  S
C789        C851   1.465       .  S
C790        C838   1.467       .  S
C790        C843   1.465       .  S
C790        C882   1.465       .  S
Fe791       O807   2.065       .  S
Fe791       O797   2.065       .  S
Fe791       O804   2.065       .  S
Fe791       O796   2.065       .  S
Fe791       O802   1.984       .  S
Fe792       O795   2.065       .  S
Fe792       O799   2.065       .  S
Fe792       O803   2.065       .  S
Fe792       O808   2.065       .  S
Fe792       O802   1.984       .  S
Fe793       O811   2.065       .  S
Fe793       O798   2.065       .  S
Fe793       O805   2.065       .  S
Fe793       O794   2.065       .  S
Fe793       O802   1.984       .  S
O794        C801   1.267       .  A
O795        C809   1.267       .  A
O796        C801   1.267       .  A
O797        C800   1.267       .  A
O798        C810   1.267       .  A
O799        C812   1.267       .  A
C800        O805   1.267       .  A
C800        C863   1.435       .  S
C801        C866   1.435       .  S
O803        C806   1.267       .  A
O804        C806   1.267       .  A
C806        C847   1.435       .  S
O807        C812   1.267       .  A
O808        C810   1.267       .  A
C809        O811   1.267       .  A
C809        C837   1.435       .  S
C810        C835   1.435       .  S
C812        C850   1.435       .  S
Fe813       O829   2.065       .  S
Fe813       O819   2.065       .  S
Fe813       O826   2.065       .  S
Fe813       O818   2.065       .  S
Fe813       O824   1.984       .  S
Fe814       O817   2.065       .  S
Fe814       O821   2.065       .  S
Fe814       O825   2.065       .  S
Fe814       O830   2.065       .  S
Fe814       O824   1.984       .  S
Fe815       O833   2.065       .  S
Fe815       O820   2.065       .  S
Fe815       O827   2.065       .  S
Fe815       O816   2.065       .  S
Fe815       O824   1.984       .  S
O816        C823   1.267       .  A
O817        C831   1.267       .  A
O818        C823   1.267       .  A
O819        C822   1.267       .  A
O820        C832   1.267       .  A
O821        C834   1.267       .  A
C822        O827   1.267       .  A
C822        C874   1.435       .  S
C823        C872   1.435       .  S
O825        C828   1.267       .  A
O826        C828   1.267       .  A
C828        C839   1.435       .  S
O829        C834   1.267       .  A
O830        C832   1.267       .  A
C831        O833   1.267       .  A
C831        C856   1.435       .  S
C832        C858   1.435       .  S
C834        C841   1.435       .  S
C835        C836   1.207       .  T
C837        C838   1.207       .  T
C839        C840   1.207       .  T
C841        C842   1.207       .  T
C843        C844   1.205       .  T
C844       C1139   1.410       .  S
C845        C846   1.205       .  T
C845       C1138   1.410   1_545  S
C847        C848   1.207       .  T
C849        C850   1.207       .  T
C851        C852   1.206       .  T
C853        C854   1.206       .  T
C855        C856   1.207       .  T
C857        C858   1.207       .  T
C860        C861   1.410       .  S
C861        C862   1.205       .  T
C863        C864   1.207       .  T
C865        C866   1.207       .  T
C867        C868   1.205       .  T
C868       C1163   1.410   1_545  S
C869        C870   1.205       .  T
C869       C1162   1.410       .  S
C871        C872   1.207       .  T
C873        C874   1.207       .  T
C875        C876   1.206       .  T
C877        C878   1.206       .  T
C879        C880   1.205       .  T
C880        C881   1.410       .  S
C881        C882   1.205       .  T
C883        C969   1.467       .  S
C883       C1069   1.467       .  S
C883        C976   1.465       .  S
C883        C977   1.465       .  S
C884        C962   1.467       .  S
C884       C1061   1.467       .  S
C884        C968   1.465       .  S
C884        C973   1.465       .  S
C885       C1051   1.467       .  S
C885        C955   1.467       .  S
C885        C957   1.465       .  S
C885        C965   1.465       .  S
C886        C946   1.467   1_556  S
C886       C1143   1.467       .  S
C886       C1148   1.465       .  S
C886        C960   1.465       .  S
C887        C938   1.467       .  S
C887       C1038   1.467       .  S
C887        C944   1.465       .  S
C887        C949   1.465       .  S
C888       C1032   1.467       .  S
C888        C936   1.467       .  S
C888        C941   1.465       .  S
C888        C980   1.465       .  S
Fe889       O905   2.065       .  S
Fe889       O895   2.065       .  S
Fe889       O902   2.065       .  S
Fe889       O894   2.065       .  S
Fe889       O900   1.984       .  S
Fe890       O893   2.065       .  S
Fe890       O897   2.065       .  S
Fe890       O901   2.065       .  S
Fe890       O906   2.065       .  S
Fe890       O900   1.984       .  S
Fe891       O909   2.065       .  S
Fe891       O896   2.065       .  S
Fe891       O903   2.065       .  S
Fe891       O892   2.065       .  S
Fe891       O900   1.984       .  S
O892        C899   1.267       .  A
O893        C907   1.267       .  A
O894        C899   1.267       .  A
O895        C898   1.267       .  A
O896        C908   1.267       .  A
O897        C910   1.267       .  A
C898        O903   1.267       .  A
C898        C961   1.435       .  S
C899        C964   1.435       .  S
O901        C904   1.267       .  A
O902        C904   1.267       .  A
C904        C945   1.435       .  S
O905        C910   1.267       .  A
O906        C908   1.267       .  A
C907        O909   1.267       .  A
C907        C935   1.435       .  S
C908        C933   1.435       .  S
C910        C948   1.435       .  S
Fe911       O927   2.065       .  S
Fe911       O917   2.065       .  S
Fe911       O924   2.065       .  S
Fe911       O916   2.065       .  S
Fe911       O922   1.984       .  S
Fe912       O915   2.065       .  S
Fe912       O919   2.065       .  S
Fe912       O923   2.065       .  S
Fe912       O928   2.065       .  S
Fe912       O922   1.984       .  S
Fe913       O931   2.065       .  S
Fe913       O918   2.065       .  S
Fe913       O925   2.065       .  S
Fe913       O914   2.065       .  S
Fe913       O922   1.984       .  S
O914        C921   1.267       .  A
O915        C929   1.267       .  A
O916        C921   1.267       .  A
O917        C920   1.267       .  A
O918        C930   1.267       .  A
O919        C932   1.267       .  A
C920        O925   1.267       .  A
C920        C972   1.435       .  S
C921        C970   1.435       .  S
O923        C926   1.267       .  A
O924        C926   1.267       .  A
C926        C937   1.435       .  S
O927        C932   1.267       .  A
O928        C930   1.267       .  A
C929        O931   1.267       .  A
C929        C954   1.435       .  S
C930        C956   1.435       .  S
C932        C939   1.435       .  S
C933        C934   1.207       .  T
C934       C1084   1.467   1_554  S
C935        C936   1.207       .  T
C937        C938   1.207       .  T
C939        C940   1.207       .  T
C940       C1083   1.467   1_554  S
C941        C942   1.205       .  T
C943        C944   1.205       .  T
C945        C946   1.207       .  T
C947        C984   1.467       .  S
C947        C948   1.207       .  T
C949        C950   1.206       .  T
C951        C952   1.206       .  T
C952        C984   1.465       .  S
C953       C1081   1.467   1_554  S
C953        C954   1.207       .  T
C955        C956   1.207       .  T
C957       C1056   1.205       .  T
C958       C1153   1.205       .  T
C958        C959   1.410       .  S
C959        C960   1.205       .  T
C961        C962   1.207       .  T
C963       C1080   1.467   1_554  S
C963        C964   1.207       .  T
C965        C966   1.205       .  T
C967        C968   1.205       .  T
C969        C970   1.207       .  T
C971       C1079   1.467   1_554  S
C971        C972   1.207       .  T
C973        C974   1.206       .  T
C975        C976   1.206       .  T
C977        C978   1.205       .  T
C978        C979   1.410       .  S
C979        C980   1.205       .  T
C981       C1067   1.467       .  S
C981       C1167   1.467       .  S
C981       C1074   1.465       .  S
C981       C1075   1.465       .  S
C982       C1060   1.467       .  S
C982       C1159   1.467       .  S
C982       C1066   1.465       .  S
C982       C1071   1.465       .  S
C983       C1149   1.467       .  S
C983       C1053   1.467       .  S
C983       C1055   1.465       .  S
C983       C1063   1.465       .  S
C984       C1044   1.467       .  S
C984       C1058   1.465       .  S
C985       C1036   1.467       .  S
C985       C1136   1.467       .  S
C985       C1042   1.465       .  S
C985       C1047   1.465       .  S
C986       C1130   1.467       .  S
C986       C1034   1.467       .  S
C986       C1039   1.465       .  S
C986       C1078   1.465       .  S
Fe987      O1003   2.065       .  S
Fe987       O993   2.065       .  S
Fe987      O1000   2.065       .  S
Fe987       O992   2.065       .  S
Fe987       O998   1.984       .  S
Fe988       O991   2.065       .  S
Fe988       O995   2.065       .  S
Fe988       O999   2.065       .  S
Fe988      O1004   2.065       .  S
Fe988       O998   1.984       .  S
Fe989      O1007   2.065       .  S
Fe989       O994   2.065       .  S
Fe989      O1001   2.065       .  S
Fe989       O990   2.065       .  S
Fe989       O998   1.984       .  S
O990        C997   1.267       .  A
O991       C1005   1.267       .  A
O992        C997   1.267       .  A
O993        C996   1.267       .  A
O994       C1006   1.267       .  A
O995       C1008   1.267       .  A
C996       O1001   1.267       .  A
C996       C1059   1.435       .  S
C997       C1062   1.435       .  S
O999       C1002   1.267       .  A
O1000      C1002   1.267       .  A
C1002      C1043   1.435       .  S
O1003      C1008   1.267       .  A
O1004      C1006   1.267       .  A
C1005      O1007   1.267       .  A
C1005      C1033   1.435       .  S
C1006      C1031   1.435       .  S
C1008      C1046   1.435       .  S
Fe1009     O1025   2.065       .  S
Fe1009     O1015   2.065       .  S
Fe1009     O1022   2.065       .  S
Fe1009     O1014   2.065       .  S
Fe1009     O1020   1.984       .  S
Fe1010     O1013   2.065       .  S
Fe1010     O1017   2.065       .  S
Fe1010     O1021   2.065       .  S
Fe1010     O1026   2.065       .  S
Fe1010     O1020   1.984       .  S
Fe1011     O1029   2.065       .  S
Fe1011     O1016   2.065       .  S
Fe1011     O1023   2.065       .  S
Fe1011     O1012   2.065       .  S
Fe1011     O1020   1.984       .  S
O1012      C1019   1.267       .  A
O1013      C1027   1.267       .  A
O1014      C1019   1.267       .  A
O1015      C1018   1.267       .  A
O1016      C1028   1.267       .  A
O1017      C1030   1.267       .  A
C1018      O1023   1.267       .  A
C1018      C1070   1.435       .  S
C1019      C1068   1.435       .  S
O1021      C1024   1.267       .  A
O1022      C1024   1.267       .  A
C1024      C1035   1.435       .  S
O1025      C1030   1.267       .  A
O1026      C1028   1.267       .  A
C1027      O1029   1.267       .  A
C1027      C1052   1.435       .  S
C1028      C1054   1.435       .  S
C1030      C1037   1.435       .  S
C1031      C1032   1.207       .  T
C1033      C1034   1.207       .  T
C1035      C1036   1.207       .  T
C1037      C1038   1.207       .  T
C1039      C1040   1.205       .  T
C1041      C1042   1.205       .  T
C1043      C1044   1.207       .  T
C1045      C1082   1.467       .  S
C1045      C1046   1.207       .  T
C1047      C1048   1.206       .  T
C1049      C1050   1.206       .  T
C1050      C1082   1.465       .  S
C1051      C1052   1.207       .  T
C1053      C1054   1.207       .  T
C1055      C1154   1.205       .  T
C1056      C1057   1.410       .  S
C1057      C1058   1.205       .  T
C1059      C1060   1.207       .  T
C1061      C1062   1.207       .  T
C1063      C1064   1.205       .  T
C1065      C1066   1.205       .  T
C1067      C1068   1.207       .  T
C1069      C1070   1.207       .  T
C1071      C1072   1.206       .  T
C1073      C1074   1.206       .  T
C1075      C1076   1.205       .  T
C1076      C1077   1.410       .  S
C1077      C1078   1.205       .  T
C1079      C1165   1.467       .  S
C1079      C1172   1.465       .  S
C1079      C1173   1.465       .  S
C1080      C1158   1.467       .  S
C1080      C1164   1.465       .  S
C1080      C1169   1.465       .  S
C1081      C1151   1.467       .  S
C1081      C1153   1.465       .  S
C1081      C1161   1.465       .  S
C1082      C1142   1.467       .  S
C1082      C1156   1.465       .  S
C1083      C1134   1.467       .  S
C1083      C1140   1.465       .  S
C1083      C1145   1.465       .  S
C1084      C1132   1.467       .  S
C1084      C1137   1.465       .  S
C1084      C1176   1.465       .  S
Fe1085     O1101   2.065       .  S
Fe1085     O1091   2.065       .  S
Fe1085     O1098   2.065       .  S
Fe1085     O1090   2.065       .  S
Fe1085     O1096   1.984       .  S
Fe1086     O1089   2.065       .  S
Fe1086     O1093   2.065       .  S
Fe1086     O1097   2.065       .  S
Fe1086     O1102   2.065       .  S
Fe1086     O1096   1.984       .  S
Fe1087     O1105   2.065       .  S
Fe1087     O1092   2.065       .  S
Fe1087     O1099   2.065       .  S
Fe1087     O1088   2.065       .  S
Fe1087     O1096   1.984       .  S
O1088      C1095   1.267       .  A
O1089      C1103   1.267       .  A
O1090      C1095   1.267       .  A
O1091      C1094   1.267       .  A
O1092      C1104   1.267       .  A
O1093      C1106   1.267       .  A
C1094      O1099   1.267       .  A
C1094      C1157   1.435       .  S
C1095      C1160   1.435       .  S
O1097      C1100   1.267       .  A
O1098      C1100   1.267       .  A
C1100      C1141   1.435       .  S
O1101      C1106   1.267       .  A
O1102      C1104   1.267       .  A
C1103      O1105   1.267       .  A
C1103      C1131   1.435       .  S
C1104      C1129   1.435       .  S
C1106      C1144   1.435       .  S
Fe1107     O1123   2.065       .  S
Fe1107     O1113   2.065       .  S
Fe1107     O1120   2.065       .  S
Fe1107     O1112   2.065       .  S
Fe1107     O1118   1.984       .  S
Fe1108     O1111   2.065       .  S
Fe1108     O1115   2.065       .  S
Fe1108     O1119   2.065       .  S
Fe1108     O1124   2.065       .  S
Fe1108     O1118   1.984       .  S
Fe1109     O1127   2.065       .  S
Fe1109     O1114   2.065       .  S
Fe1109     O1121   2.065       .  S
Fe1109     O1110   2.065       .  S
Fe1109     O1118   1.984       .  S
O1110      C1117   1.267       .  A
O1111      C1125   1.267       .  A
O1112      C1117   1.267       .  A
O1113      C1116   1.267       .  A
O1114      C1126   1.267       .  A
O1115      C1128   1.267       .  A
C1116      O1121   1.267       .  A
C1116      C1168   1.435       .  S
C1117      C1166   1.435       .  S
O1119      C1122   1.267       .  A
O1120      C1122   1.267       .  A
C1122      C1133   1.435       .  S
O1123      C1128   1.267       .  A
O1124      C1126   1.267       .  A
C1125      O1127   1.267       .  A
C1125      C1150   1.435       .  S
C1126      C1152   1.435       .  S
C1128      C1135   1.435       .  S
C1129      C1130   1.207       .  T
C1131      C1132   1.207       .  T
C1133      C1134   1.207       .  T
C1135      C1136   1.207       .  T
C1137      C1138   1.205       .  T
C1139      C1140   1.205       .  T
C1141      C1142   1.207       .  T
C1143      C1144   1.207       .  T
C1145      C1146   1.206       .  T
C1147      C1148   1.206       .  T
C1149      C1150   1.207       .  T
C1151      C1152   1.207       .  T
C1154      C1155   1.410       .  S
C1155      C1156   1.205       .  T
C1157      C1158   1.207       .  T
C1159      C1160   1.207       .  T
C1161      C1162   1.205       .  T
C1163      C1164   1.205       .  T
C1165      C1166   1.207       .  T
C1167      C1168   1.207       .  T
C1169      C1170   1.206       .  T
C1171      C1172   1.206       .  T
C1173      C1174   1.205       .  T
C1174      C1175   1.410       .  S
C1175      C1176   1.205       .  T
