geometry optimzed in LAMMPS
_audit_creation_date              2020-11-30 
_audit_creation_method            'lammps2cif' 
_symmetry_space_group_name_H-M    'P1' 
_symmetry_Int_Tables_number       1 
_symmetry_cell_setting            triclinic 
loop_ 
_symmetry_equiv_pos_as_xyz 
  x,y,z 
_cell_length_a                    42.481993127632045 
_cell_length_b                    42.369454322804934 
_cell_length_c                    67.3094883114509 
_cell_angle_alpha                 90.08046293447465 
_cell_angle_beta                  90.08723160433364 
_cell_angle_gamma                 122.6168489376643 
loop_ 
_atom_site_label 
_atom_site_type_symbol 
_atom_site_fract_x 
_atom_site_fract_y 
_atom_site_fract_z 
_atom_site_charge 
O1          O  0.05185639  0.84604226  0.33046974    -0.57460
C2          C  0.94089896  0.77987701  0.32471853     0.75170
O3          O  0.00551552  0.74923978  0.28677368    -0.58620
C4          C  0.08078921  0.84997766  0.32253669     0.75140
C5          C  0.01360732  0.73179006  0.34742433     0.77530
Cd6        Cd  0.00889920  0.78084802  0.31914853     1.37460
O7          O  0.97233259  0.80774821  0.32990940    -0.57460
O8          O  0.02456412  0.76541399  0.35127599    -0.56270
C9          C  0.00832152  0.77561593  0.27641495     0.77490
O10         O  0.99910121  0.71973136  0.33044487    -0.58640
O11         O  0.94035467  0.75132447  0.31867543    -0.57090
O12         O  0.07694156  0.82155331  0.31384433    -0.57080
O13         O  0.01148783  0.80301205  0.28576050    -0.56250
O14         O  0.97153622  0.80654653  0.20094718    -0.57460
C15         C  0.08168385  0.84961597  0.20714773     0.75170
O16         O  0.00334743  0.74850481  0.24416953    -0.58620
C17         C  0.94063117  0.77914920  0.20707120     0.75140
C18         C  0.00904067  0.72804634  0.18470401     0.77530
Cd19       Cd  0.00924545  0.78112261  0.21192541     1.37460
O20         O  0.05248147  0.84610740  0.19985762    -0.57460
O21         O  0.00231040  0.75221171  0.17889216    -0.56270
C22         C  0.00817043  0.77567039  0.25463358     0.77490
O23         O  0.01491662  0.72783921  0.20312435    -0.58640
O24         O  0.07785350  0.82100200  0.21542965    -0.57090
O25         O  0.94097664  0.75178911  0.21432233    -0.57080
O26         O  0.01295315  0.80385219  0.24540155    -0.56250
O27         O  0.12147118  0.91490889  0.19982049    -0.57460
C28         C  0.18825125  0.02679107  0.20701687     0.75170
O29         O  0.21825877  0.96355454  0.24430633    -0.58620
C30         C  0.11776549  0.88562689  0.20719054     0.75140
C31         C  0.23714651  0.95576341  0.18385017     0.77530
Cd32       Cd  0.18633310  0.95795371  0.21178877     1.37460
O33         O  0.16035775  0.99556840  0.20152466    -0.57460
O34         O  0.20876876  0.95606475  0.17845360    -0.56270
C35         C  0.19099603  0.95881030  0.25453514     0.77490
O36         O  0.24298863  0.95760849  0.20239089    -0.58640
O37         O  0.21629956  0.02674989  0.21332753    -0.57090
O38         O  0.14621764  0.88932017  0.21561527    -0.57080
O39         O  0.16296147  0.95373173  0.24505947    -0.56250
O40         O  0.16022383  0.99723938  0.32987326    -0.57460
C41         C  0.11665453  0.88623174  0.32254410     0.75170
O42         O  0.21750326  0.96325819  0.28688748    -0.58620
C43         C  0.18812526  0.02828207  0.32427009     0.75140
C44         C  0.23509934  0.95597489  0.34738613     0.77530
Cd45       Cd  0.18519923  0.95884687  0.31897083     1.37470
O46         O  0.12001948  0.91533010  0.33004400    -0.57460
O47         O  0.20478409  0.95274711  0.35234625    -0.56270
C48         C  0.19077877  0.95909325  0.27631617     0.77490
O49         O  0.24313298  0.96181528  0.32911798    -0.58640
O50         O  0.14532973  0.89025690  0.31427829    -0.57090
O51         O  0.21554503  0.02770678  0.31747497    -0.57080
O52         O  0.16288404  0.95505845  0.28543149    -0.56250
O53         O  0.15971684  0.06321794  0.33022101    -0.57460
C54         C  0.11700668  0.13010925  0.32286975     0.75170
O55         O  0.23966135  0.18954682  0.32888016    -0.58620
C56         C  0.18780813  0.06280257  0.32435423     0.75140
C57         C  0.18884279  0.13207869  0.27674668     0.77530
Cd58       Cd  0.18387063  0.12834056  0.31933976     1.37460
O59         O  0.11794006  0.10255207  0.32932451    -0.57460
O60         O  0.16149101  0.10585487  0.28610727    -0.56270
C61         C  0.23501213  0.18439398  0.34744370     0.77490
O62         O  0.21535300  0.15775538  0.28705235    -0.58640
O63         O  0.14710678  0.15721275  0.31585440    -0.57090
O64         O  0.21486243  0.09315041  0.31744794    -0.57080
O65         O  0.20762948  0.15285156  0.35292654    -0.56250
O66         O  0.11767582  0.10189895  0.20233994    -0.57460
C67         C  0.18728283  0.06092139  0.20729229     0.75170
O68         O  0.24182391  0.18330855  0.20081459    -0.58620
C69         C  0.11775898  0.13035600  0.20826922     0.75140
C70         C  0.18867932  0.13172107  0.25499050     0.77530
Cd71       Cd  0.18317464  0.12631380  0.21246198     1.37470
O72         O  0.15825998  0.06055165  0.20244562    -0.57460
O73         O  0.16156408  0.10473044  0.24577546    -0.56270
C74         C  0.23233649  0.17815486  0.18264434     0.77490
O75         O  0.21462318  0.15753690  0.24455154    -0.58640
O76         O  0.21482666  0.09175959  0.21347576    -0.57090
O77         O  0.14810003  0.15708193  0.21545640    -0.57080
O78         O  0.20062523  0.14942806  0.17872904    -0.56250
O79         O  0.97272823  0.06657414  0.19971827    -0.57460
C80         C  0.08396305  0.13178999  0.20779764     0.75170
O81         O  0.02592546  0.19330474  0.20111271    -0.58620
C82         C  0.94331916  0.06348721  0.20631953     0.75140
C83         C  0.01437119  0.13517660  0.25403371     0.77530
Cd84       Cd  0.01594073  0.13163254  0.21127636     1.37470
O85         O  0.05320859  0.10503496  0.20102374    -0.57460
O86         O  0.01422082  0.10938991  0.24454943    -0.56270
C87         C  0.02285684  0.18660659  0.18262024     0.77490
O88         O  0.01510434  0.16068795  0.24380393    -0.58640
O89         O  0.08383215  0.15932426  0.21496611    -0.57090
O90         O  0.94687743  0.09264034  0.21386228    -0.57080
O91         O  0.01549023  0.15448631  0.17772544    -0.56250
O92         O  0.97046062  0.06396489  0.33036707    -0.57460
C93         C  0.08247961  0.13020943  0.32258194     0.75170
O94         O  0.01515104  0.15987484  0.28645568    -0.58620
C95         C  0.94090913  0.06166435  0.32466164     0.75140
C96         C  0.02149569  0.18305107  0.34753107     0.77530
Cd97       Cd  0.01392825  0.12878915  0.31852861     1.37470
O98         O  0.05157714  0.10245447  0.32846189    -0.57460
O99         O  0.02111393  0.15391163  0.35195408    -0.56270
C100        C  0.01388775  0.13448721  0.27582744     0.77490
O101        O  0.01770665  0.18723742  0.32922862    -0.58640
O102        O  0.08196314  0.15765312  0.31562760    -0.57090
O103        O  0.94472439  0.09092277  0.31720746    -0.57080
O104        O  0.01239691  0.10764616  0.28489977    -0.56250
O105        O  0.86337154  0.91706237  0.32973434    -0.57460
C106        C  0.90446503  0.02603225  0.32515066     0.75170
O107        O  0.80362048  0.94621584  0.28659232    -0.58620
C108        C  0.83765790  0.88651112  0.32211224     0.75140
C109        C  0.77962409  0.94476169  0.34712395     0.77530
Cd110      Cd  0.83635334  0.95380022  0.31927953     1.37470
O111        O  0.90097171  0.99629117  0.33164159    -0.57460
O112        O  0.80190897  0.93447974  0.35098554    -0.56270
C113        C  0.83195692  0.95365884  0.27644520     0.77490
O114        O  0.78414359  0.96078078  0.33055629    -0.58640
O115        O  0.87554694  0.02298559  0.31777870    -0.57090
O116        O  0.81078055  0.88666868  0.31407067    -0.57080
O117        O  0.86067531  0.96098279  0.28603274    -0.56250
O118        O  0.90462810  0.99751641  0.20046569    -0.57460
C119        C  0.83888223  0.88578630  0.20839016     0.75170
O120        O  0.80516628  0.94673114  0.24384661    -0.58620
C121        C  0.90742486  0.02721352  0.20652824     0.75140
C122        C  0.78720614  0.95005903  0.18269774     0.77530
Cd123      Cd  0.83963573  0.95427881  0.21196306     1.37470
O124        O  0.86621023  0.91671110  0.20219426    -0.57460
O125        O  0.81260332  0.94418101  0.17850723    -0.56270
C126        C  0.83273019  0.95381046  0.25464379     0.77490
O127        O  0.78544184  0.95744473  0.20075290    -0.58640
O128        O  0.81150880  0.88620346  0.21542837    -0.57090
O129        O  0.87833238  0.02366653  0.21392544    -0.57080
O130        O  0.86203163  0.96105071  0.24573920    -0.56250
O131        O  0.86702410  0.85065537  0.20190957    -0.57460
C132        C  0.90649701  0.77995831  0.20696375     0.75170
O133        O  0.81171674  0.75340628  0.24402279    -0.58620
C134        C  0.83934299  0.85134764  0.20827707     0.75140
C135        C  0.78682498  0.73409176  0.18287687     0.77530
Cd136      Cd  0.84153306  0.78454336  0.21171790     1.37470
O137        O  0.90644113  0.80827844  0.20100610    -0.57460
O138        O  0.81749325  0.76322268  0.17790337    -0.56270
C139        C  0.83765417  0.77979238  0.25429308     0.77490
O140        O  0.78189936  0.72745282  0.20133316    -0.58640
O141        O  0.87610456  0.75305932  0.21387553    -0.57090
O142        O  0.81240140  0.82108392  0.21529813    -0.57080
O143        O  0.86409940  0.80690207  0.24489799    -0.56250
O144        O  0.86735459  0.85276041  0.32834665    -0.57460
C145        C  0.90721961  0.78145813  0.32430072     0.75170
O146        O  0.78363166  0.73070018  0.33020254    -0.58620
C147        C  0.83930978  0.85275141  0.32187165     0.75140
C148        C  0.83800049  0.78020862  0.27605226     0.77530
Cd149      Cd  0.84291169  0.78676602  0.31854209     1.37470
O150        O  0.90824019  0.81109852  0.32866069    -0.57460
O151        O  0.86477348  0.80766908  0.28520321    -0.56270
C152        C  0.79018851  0.73957856  0.34841892     0.77490
O153        O  0.81235159  0.75422064  0.28655088    -0.58640
O154        O  0.87620188  0.75388290  0.31833047    -0.57090
O155        O  0.81298927  0.82236995  0.31449728    -0.57080
O156        O  0.82120033  0.76919100  0.35245741    -0.56250
O157        O  0.39400992  0.26351375  0.97573713    -0.57460
C158        C  0.42111660  0.21455206  0.94051071     0.75170
O159        O  0.37857530  0.26822513  0.90709727    -0.58620
C160        C  0.38032056  0.28342451  0.97745716     0.75140
C161        C  0.47643949  0.34144495  0.93813549     0.77530
Cd162      Cd  0.40487738  0.27165331  0.94051618     1.37470
O163        O  0.39992986  0.21574299  0.95319770    -0.57460
O164        O  0.46900808  0.31612601  0.95055342    -0.56270
C165        C  0.34565886  0.24176514  0.91133451     0.77490
O166        O  0.45020169  0.33455145  0.92629372    -0.58640
O167        O  0.43425717  0.23956095  0.92721736    -0.57090
O168        O  0.37606810  0.29703681  0.96167802    -0.57080
O169        O  0.34027151  0.23114068  0.92920449    -0.56250
O170        O  0.73744891  0.55879924  0.95651471    -0.57460
C171        C  0.67407819  0.58307654  0.97544512     0.75170
O172        O  0.69201204  0.58063674  0.90466451    -0.58620
C173        C  0.74672012  0.54544759  0.94259924     0.75140
C174        C  0.61859180  0.48351689  0.93540143     0.77530
Cd175      Cd  0.68641454  0.55626246  0.93911033     1.37470
O176        O  0.70194588  0.58046049  0.97271557    -0.57460
O177        O  0.64661607  0.48885717  0.94506712    -0.56270
C178        C  0.71689970  0.61412981  0.90909158     0.77490
O179        O  0.62206027  0.51191847  0.92695586    -0.58640
O180        O  0.65164642  0.57404571  0.96097167    -0.57090
O181        O  0.72636431  0.53446476  0.92716917    -0.57080
O182        O  0.72514207  0.62077831  0.92726433    -0.56250
O183        O  0.27384294  0.32912153  0.08119016    -0.57460
C184        C  0.34436071  0.31543732  0.05391770     0.75170
O185        O  0.39765373  0.39033540  0.10407387    -0.58620
C186        C  0.27426444  0.35445922  0.09126965     0.75140
C187        C  0.31081650  0.28995976  0.12166779     0.77530
Cd188      Cd  0.33535277  0.34452623  0.09021167     1.37470
O189        O  0.32520728  0.33003408  0.05501710    -0.57460
O190        O  0.29691800  0.28200663  0.10439807    -0.56270
C191        C  0.40545564  0.41551732  0.09133544     0.77490
O192        O  0.33809245  0.32329628  0.12419854    -0.58640
O193        O  0.35945152  0.31402694  0.06985982    -0.57090
O194        O  0.30409376  0.37702126  0.10056765    -0.57080
O195        O  0.38040720  0.40815067  0.07863905    -0.56250
O196        O  0.64212291  0.64058415  0.05699917    -0.57460
C197        C  0.60613455  0.68381003  0.09239836     0.75170
O198        O  0.57332424  0.56305957  0.10485096    -0.58620
C199        C  0.64426463  0.61236848  0.05407866     0.75140
C200        C  0.67843712  0.65078780  0.12085012     0.77530
Cd201      Cd  0.62035900  0.62507176  0.09103207     1.37460
O202        O  0.62106259  0.67865617  0.07757446    -0.57460
O203        O  0.68529927  0.66326278  0.10329440    -0.56270
C204        C  0.54743137  0.55714073  0.09304173     0.77490
O205        O  0.64498665  0.62478864  0.12431900    -0.58640
O206        O  0.59710216  0.66106955  0.10661632    -0.57090
O207        O  0.63814525  0.59110814  0.06874637    -0.57080
O208        O  0.55528024  0.58263263  0.08058666    -0.56250
O209        O  0.09410718  0.41711637  0.10501671    -0.57460
C210        C  0.14270402  0.36079207  0.09034924     0.75170
O211        O  0.03305247  0.28889062  0.10662517    -0.58620
C212        C  0.06542170  0.41647641  0.09919760     0.75140
C213        C  0.04857677  0.33653041  0.05287184     0.77530
Cd214      Cd  0.07208186  0.35316289  0.09355545     1.37460
O215        O  0.14088111  0.38763419  0.09718672    -0.57460
O216        O  0.08145333  0.36225260  0.05767769    -0.56270
C217        C  0.04199871  0.29716474  0.12468304     0.77490
O218        O  0.02622452  0.31895030  0.06706965    -0.58640
O219        O  0.11244479  0.33213208  0.08456485    -0.57090
O220        O  0.03865659  0.38569088  0.09239699    -0.57080
O221        O  0.06147594  0.33176167  0.12878457    -0.56250
O222        O  0.06964783  0.63842897  0.06175303    -0.57460
C223        C  0.14871354  0.68319099  0.09648537     0.75170
O224        O  0.05577569  0.63009711  0.13055714    -0.58620
C225        C  0.03718762  0.61091041  0.05781405     0.75140
C226        C  0.06672767  0.55322596  0.09920380     0.77530
Cd227      Cd  0.07092766  0.62320402  0.09623421     1.37470
O228        O  0.12459406  0.68323895  0.08552296    -0.57460
O229        O  0.08345700  0.57609285  0.08519898    -0.56270
C230        C  0.04088997  0.64833620  0.12659615     0.77490
O231        O  0.05139218  0.56237776  0.11212151    -0.58640
O232        O  0.13709340  0.65477517  0.10742408    -0.57090
O233        O  0.01820351  0.59036474  0.07232654    -0.57080
O234        O  0.03661565  0.65211608  0.10833453    -0.56250
O235        O  0.90240998  0.24358033  0.95010857    -0.57460
C236        C  0.99556618  0.30397290  0.97165324     0.75170
O237        O  0.98213349  0.28513569  0.90038181    -0.58620
C238        C  0.88196609  0.23088528  0.93483565     0.75140
C239        C  0.96402506  0.35990381  0.92913046     0.77530
Cd240      Cd  0.96011618  0.29022249  0.93361681     1.37460
O241        O  0.96483289  0.27426575  0.96750439    -0.57460
O242        O  0.94136696  0.33446224  0.94080378    -0.56270
C243        C  0.99081897  0.26194986  0.90530679     0.77490
O244        O  0.98399627  0.35278680  0.91849337    -0.58640
O245        O  0.01288425  0.32612984  0.95737512    -0.57090
O246        O  0.89752853  0.24665855  0.91862872    -0.57080
O247        O  0.98695136  0.25334998  0.92351191    -0.56250
O248        O  0.93423366  0.49378591  0.92489996    -0.57460
C249        C  0.88151941  0.54462230  0.94305388     0.75170
O250        O  0.00114288  0.59449183  0.96268130    -0.58620
C251        C  0.96355094  0.49527569  0.93024377     0.75140
C252        C  0.98287677  0.61224235  0.90586720     0.77530
Cd253      Cd  0.95403760  0.55677823  0.93732240     1.37460
O254        O  0.88540496  0.52120104  0.93349787    -0.57460
O255        O  0.95916612  0.57797395  0.90253381    -0.56270
C256        C  0.98043531  0.57651706  0.97735022     0.77490
O257        O  0.99505436  0.62052701  0.92348380    -0.58640
O258        O  0.91109670  0.57269167  0.94996520    -0.57090
O259        O  0.98898871  0.52561355  0.93809754    -0.57080
O260        O  0.94801662  0.54883213  0.97333143    -0.56250
O261        O  0.44179103  0.07350561  0.92590999    -0.57460
C262        C  0.47786270  0.00660846  0.92905205     0.75170
O263        O  0.37907472  0.95898144  0.96207914    -0.58620
C264        C  0.42530534  0.08182502  0.93848997     0.75140
C265        C  0.35301775  0.97905585  0.90742980     0.77530
Cd266      Cd  0.41224898  0.00846294  0.93691197     1.37470
O267        O  0.47851312  0.03665928  0.93083379    -0.57460
O268        O  0.38636617  0.99095478  0.90257961    -0.56270
C269        C  0.39613165  0.98007885  0.97683492     0.77490
O270        O  0.34680265  0.97780457  0.92585925    -0.58640
O271        O  0.44598341  0.97648233  0.93020013    -0.57090
O272        O  0.40432282  0.05666949  0.95079510    -0.57080
O273        O  0.42047372  0.01392449  0.97290894    -0.56250
O274        O  0.74085314  0.06280698  0.94904635    -0.57460
C275        C  0.67316314  0.97560302  0.97293810     0.75170
O276        O  0.62299448  0.99093543  0.91803756    -0.58620
C277        C  0.74267137  0.08787599  0.93799134     0.75140
C278        C  0.70947950  0.98249190  0.90384501     0.77530
Cd279      Cd  0.68318734  0.01035748  0.93483621     1.37460
O280        O  0.70459487  0.00274195  0.96729819    -0.57460
O281        O  0.71746826  0.01576184  0.90482206    -0.56270
C282        C  0.61602779  0.01052336  0.92921111     0.77490
O283        O  0.68702415  0.96049210  0.91692292    -0.58640
O284        O  0.64706577  0.96241455  0.96022244    -0.57090
O285        O  0.71619717  0.07713124  0.92566388    -0.57080
O286        O  0.63972789  0.02904237  0.94266724    -0.56250
O287        O  0.59030808  0.82773272  0.10517443    -0.57460
C288        C  0.55596795  0.90112616  0.10066299     0.75170
O289        O  0.68292518  0.93272236  0.10615127    -0.58620
C290        C  0.60418393  0.81832849  0.09157774     0.75140
C291        C  0.63798305  0.91783350  0.05320410     0.77530
Cd292      Cd  0.61809359  0.89242799  0.09348427     1.37470
O293        O  0.55267577  0.86967900  0.09975292    -0.57460
O294        O  0.60705223  0.88861662  0.05769682    -0.56270
C295        C  0.67517732  0.92327116  0.12417345     0.77490
O296        O  0.65942405  0.93619731  0.06763719    -0.58640
O297        O  0.58884124  0.92938199  0.09862255    -0.57090
O298        O  0.62365616  0.84293547  0.07874566    -0.57080
O299        O  0.64090628  0.90141520  0.12809122    -0.56250
O300        O  0.33993684  0.89703270  0.06248958    -0.57460
C301        C  0.29123399  0.82185828  0.09591695     0.75170
O302        O  0.41835819  0.93002801  0.10762547    -0.58620
C303        C  0.36431385  0.93088640  0.05873970     0.75140
C304        C  0.31990785  0.92579703  0.12664127     0.77530
Cd305      Cd  0.35128568  0.89916398  0.09790728     1.37470
O306        O  0.29500675  0.84623660  0.08367908    -0.57460
O307        O  0.31525800  0.92630321  0.10814314    -0.56270
C308        C  0.41994481  0.90167070  0.10361241     0.77490
O309        O  0.34219445  0.91631426  0.13206226    -0.58640
O310        O  0.31555994  0.83330378  0.10959584    -0.57090
O311        O  0.38268703  0.95120085  0.07348782    -0.57080
O312        O  0.39009879  0.87309628  0.09733374    -0.56250
O313        O  0.47401854  0.03343482  0.59223665    -0.57460
C314        C  0.42386525  0.08500321  0.59365718     0.75170
O315        O  0.36963788  0.96232441  0.56971829    -0.58620
C316        C  0.47257258  0.00523415  0.59941286     0.75140
C317        C  0.35370097  0.98712676  0.62636927     0.77530
Cd318      Cd  0.40826969  0.01093082  0.59506668     1.37460
O319        O  0.44242882  0.07687556  0.60490944    -0.57460
O320        O  0.38482412  0.01794123  0.62674589    -0.56270
C321        C  0.38377720  0.98453726  0.55511735     0.77490
O322        O  0.34850810  0.96493082  0.61228051    -0.58640
O323        O  0.39889526  0.05893887  0.58287393    -0.57090
O324        O  0.44120408  0.97954333  0.60609372    -0.57080
O325        O  0.40829829  0.01819075  0.55925997    -0.56250
O326        O  0.72490324  0.06496725  0.58319535    -0.57460
C327        C  0.66230332  0.97005694  0.55938424     0.75170
O328        O  0.67697642  0.98108027  0.63082572    -0.58620
C329        C  0.73574519  0.08309665  0.59935641     0.75140
C330        C  0.60826770  0.00489734  0.60195742     0.77530
Cd331      Cd  0.67589722  0.00535499  0.59766054     1.37470
O332        O  0.69351029  0.99904585  0.56383027    -0.57460
O333        O  0.63694050  0.03091096  0.59325010    -0.56270
C334        C  0.70196015  0.97447171  0.62682605     0.77490
O335        O  0.61106825  0.97915977  0.60951980    -0.58640
O336        O  0.63856460  0.95534851  0.57323653    -0.57090
O337        O  0.71769147  0.06543127  0.61467076    -0.57080
O338        O  0.71224756  0.97883829  0.60887339    -0.56250
O339        O  0.57995188  0.82900997  0.42910482    -0.57460
C340        C  0.54991390  0.90173644  0.43062186     0.75170
O341        O  0.65711025  0.93601400  0.46393294    -0.58620
C342        C  0.59933583  0.82212342  0.44041492     0.75140
C343        C  0.66653603  0.91890973  0.40465708     0.77530
Cd344      Cd  0.61340281  0.89559164  0.43700815     1.37460
O345        O  0.54724012  0.87103875  0.43371796    -0.57460
O346        O  0.63759158  0.88644876  0.40623139    -0.56270
C347        C  0.63312117  0.92008070  0.47764579     0.77490
O348        O  0.67042140  0.94271617  0.41751449    -0.58640
O349        O  0.58260221  0.93033925  0.42844702    -0.57090
O350        O  0.62417619  0.84913554  0.45078136    -0.57080
O351        O  0.60082262  0.89404545  0.47233712    -0.56250
O352        O  0.28899893  0.84053582  0.44754739    -0.57460
C353        C  0.35592178  0.93175843  0.47387073     0.75170
O354        O  0.40818036  0.92388267  0.42176110    -0.58620
C355        C  0.28450308  0.81976005  0.43291811     0.75140
C356        C  0.31552802  0.92834829  0.40744207     0.77530
Cd357      Cd  0.34399985  0.89737229  0.43529990     1.37470
O358        O  0.33435808  0.89695887  0.47101951    -0.57460
O359        O  0.30083847  0.91540837  0.42417639    -0.56270
C360        C  0.41346455  0.90084810  0.43070635     0.77490
O361        O  0.34457815  0.92807823  0.40365878    -0.58640
O362        O  0.37123203  0.95148862  0.45855245    -0.57090
O363        O  0.30850867  0.83469681  0.41917845    -0.57080
O364        O  0.38664050  0.87643835  0.44115407    -0.56250
O365        O  0.38099409  0.25930576  0.55895903    -0.57460
C366        C  0.42399694  0.21989200  0.59140410     0.75170
O367        O  0.45161872  0.33786837  0.60683874    -0.58620
C368        C  0.38164459  0.28890325  0.55548169     0.75140
C369        C  0.34745002  0.24674898  0.62198427     0.77530
Cd370      Cd  0.40588585  0.27578863  0.59243435     1.37460
O371        O  0.40384826  0.22209812  0.57840398    -0.57460
O372        O  0.34149047  0.23569086  0.60414950    -0.56270
C373        C  0.47753142  0.34467329  0.59484651     0.77490
O374        O  0.38038994  0.27325338  0.62611643    -0.58640
O375        O  0.43595766  0.24388104  0.60527405    -0.57090
O376        O  0.39059361  0.31146890  0.56991761    -0.57080
O377        O  0.47014933  0.31959590  0.58212421    -0.56250
O378        O  0.69462926  0.56659213  0.55435671    -0.57460
C379        C  0.75131454  0.54752868  0.58680184     0.75170
O380        O  0.69728379  0.57816507  0.62483281    -0.58620
C381        C  0.67632661  0.58215966  0.55349691     0.75140
C382        C  0.61897423  0.48644225  0.59260447     0.77530
Cd383      Cd  0.68951852  0.55659278  0.58987945     1.37470
O384        O  0.74951970  0.57207015  0.57717985    -0.57460
O385        O  0.64409795  0.49185992  0.58050729    -0.56270
C386        C  0.71603340  0.61270698  0.62058185     0.77490
O387        O  0.62688927  0.51319569  0.60430032    -0.58640
O388        O  0.72435895  0.52705625  0.59835427    -0.57090
O389        O  0.66435502  0.58644108  0.56984442    -0.57080
O390        O  0.72098766  0.62082143  0.60232195    -0.56250
O391        O  0.33017835  0.33697079  0.47522800    -0.57460
C392        C  0.27827344  0.35488163  0.43819453     0.75170
O393        O  0.40455105  0.39384970  0.42562042    -0.58620
C394        C  0.35284237  0.32680424  0.47803174     0.75140
C395        C  0.32022896  0.29488734  0.40836045     0.77530
Cd396      Cd  0.34219952  0.34927077  0.43988400     1.37460
O397        O  0.27690422  0.32637269  0.44491858    -0.57460
O398        O  0.31659809  0.28588867  0.42649619    -0.56270
C399        C  0.41159368  0.42069287  0.43706211     0.77490
O400        O  0.33672768  0.32964614  0.40484227    -0.58640
O401        O  0.30991932  0.38202361  0.43275827    -0.57090
O402        O  0.36953987  0.32527289  0.46282920    -0.57080
O403        O  0.38645785  0.41444121  0.44939542    -0.56250
O404        O  0.62967391  0.69088386  0.45311307    -0.57460
C405        C  0.64951629  0.62371738  0.47685607     0.75170
O406        O  0.58040857  0.56971613  0.42695173    -0.58620
C407        C  0.60568660  0.69059610  0.44189599     0.75140
C408        C  0.67913667  0.66456692  0.40988251     0.77530
Cd409      Cd  0.62266259  0.63400217  0.44022780     1.37460
O410        O  0.63703107  0.64471921  0.47520807    -0.57460
O411        O  0.68673597  0.67249000  0.42806382    -0.56270
C412        C  0.55362917  0.56214715  0.43844701     0.77490
O413        O  0.64542076  0.64017687  0.40566915    -0.58640
O414        O  0.65087869  0.60800350  0.46113425    -0.57090
O415        O  0.58978022  0.66414105  0.42936633    -0.57080
O416        O  0.55864171  0.58802310  0.44996757    -0.56250
O417        O  0.09799413  0.41489839  0.44102627    -0.57460
C418        C  0.14371040  0.35595751  0.43823334     0.75170
O419        O  0.02133881  0.31926981  0.46182043    -0.58620
C420        C  0.07107261  0.41467368  0.43282910     0.75140
C421        C  0.04339902  0.29359481  0.40603518     0.77530
Cd422      Cd  0.07273125  0.34811231  0.43745981     1.37470
O423        O  0.14126807  0.38325267  0.43293216    -0.57460
O424        O  0.06364993  0.32823598  0.40213156    -0.56270
C425        C  0.04229661  0.32504468  0.47661200     0.77490
O426        O  0.03376764  0.28487315  0.42396181    -0.58640
O427        O  0.11375629  0.32617102  0.44316577    -0.57090
O428        O  0.04537546  0.38376833  0.42549812    -0.57080
O429        O  0.07684951  0.34152868  0.47317797    -0.56250
O430        O  0.06698210  0.63090221  0.46899274    -0.57460
C431        C  0.14646198  0.67640367  0.43376894     0.75170
O432        O  0.04635554  0.55412429  0.42052425    -0.58620
C433        C  0.03348814  0.60536923  0.47238614     0.75140
C434        C  0.04370781  0.64961673  0.40485110     0.77530
Cd435      Cd  0.06885644  0.61777048  0.43410448     1.37470
O436        O  0.12474326  0.67140124  0.44791800    -0.57460
O437        O  0.05889643  0.66543903  0.42109930    -0.56270
C438        C  0.07015130  0.55062341  0.42994792     0.77490
O439        O  0.03652348  0.61669884  0.40250499    -0.58640
O440        O  0.13234771  0.65345434  0.41939056    -0.57090
O441        O  0.01460472  0.58604466  0.45749979    -0.57080
O442        O  0.09328677  0.57826600  0.44048922    -0.56250
O443        O  0.89783131  0.22835789  0.58189365    -0.57460
C444        C  0.98662334  0.29330735  0.55678464     0.75170
O445        O  0.99003366  0.34894498  0.60251406    -0.58620
C446        C  0.87793108  0.22250102  0.59710190     0.75140
C447        C  0.98240200  0.24895459  0.62374379     0.77530
Cd448      Cd  0.95555483  0.28080179  0.59583686     1.37460
O449        O  0.95186557  0.27479988  0.55998829    -0.57460
O450        O  0.97442705  0.23795290  0.60593457    -0.56270
C451        C  0.96161985  0.35126137  0.60134834     0.77490
O452        O  0.98127996  0.27729139  0.62840329    -0.58640
O453        O  0.00784608  0.30448390  0.57187130    -0.57090
O454        O  0.89404317  0.24394798  0.61185262    -0.57080
O455        O  0.93057015  0.32093592  0.59870350    -0.56250
O456        O  0.92804354  0.48318072  0.60127256    -0.57460
C457        C  0.88492776  0.54396054  0.58673310     0.75170
O458        O  0.00078889  0.60555772  0.61369047    -0.58620
C459        C  0.95916273  0.48588712  0.60183621     0.75140
C460        C  0.98221234  0.56949345  0.55366599     0.77530
Cd461      Cd  0.95384491  0.54961085  0.59338410     1.37470
O462        O  0.88618877  0.51985136  0.59727972    -0.57460
O463        O  0.95110474  0.53992881  0.55749418    -0.56270
C464        C  0.97649729  0.60297699  0.62565126     0.77490
O465        O  0.00046222  0.59019863  0.56834879    -0.58640
O466        O  0.91482302  0.56808595  0.57811380    -0.57090
O467        O  0.98789145  0.51836324  0.59949421    -0.57080
O468        O  0.94367573  0.57497068  0.62351594    -0.56250
O469        O  0.97286990  0.79972705  0.70085417    -0.57460
C470        C  0.08220695  0.83958774  0.70559297     0.75170
O471        O  0.00326617  0.74033224  0.74360690    -0.58620
C472        C  0.94209940  0.77319755  0.70764764     0.75140
C473        C  0.00134516  0.71661219  0.68274696     0.77530
Cd474      Cd  0.00950567  0.77241094  0.71101807     1.37470
O475        O  0.05285639  0.83705284  0.69928670    -0.57460
O476        O  0.99976530  0.74448864  0.67776574    -0.56270
C477        C  0.01024694  0.76860249  0.75380870     0.77490
O478        O  0.00839048  0.71502887  0.70087911    -0.58640
O479        O  0.07846285  0.81018052  0.71279784    -0.57090
O480        O  0.94208181  0.74573401  0.71501316    -0.57080
O481        O  0.01686712  0.79718750  0.74428904    -0.56250
O482        O  0.05383434  0.84044695  0.83031172    -0.57460
C483        C  0.94254761  0.77526104  0.82156636     0.75170
O484        O  0.00329955  0.74152417  0.78625724    -0.58620
C485        C  0.08344010  0.84307710  0.82443715     0.75140
C486        C  0.00659671  0.72298779  0.84732818     0.77530
Cd487      Cd  0.01064730  0.77561909  0.81830150     1.37460
O488        O  0.97351293  0.80276003  0.82767043    -0.57460
O489        O  0.00074190  0.74843017  0.85164454    -0.56270
C490        C  0.01054645  0.76931424  0.77560584     0.77490
O491        O  0.01357347  0.72108148  0.82923071    -0.58640
O492        O  0.94269940  0.74745012  0.81482508    -0.57090
O493        O  0.07981573  0.81394624  0.81687113    -0.57080
O494        O  0.01793692  0.79867685  0.78465696    -0.56250
O495        O  0.12133355  0.90556534  0.70034680    -0.57460
C496        C  0.18555404  0.01576236  0.70994165     0.75170
O497        O  0.21891220  0.95426541  0.74531217    -0.58620
C498        C  0.11821079  0.87559921  0.70610709     0.75140
C499        C  0.24039313  0.95616066  0.68443017     0.77530
Cd500      Cd  0.18562611  0.94789219  0.71305825     1.37470
O501        O  0.15872457  0.98494511  0.70316504    -0.57460
O502        O  0.21834823  0.96696432  0.68117326    -0.56270
C503        C  0.19158957  0.94863426  0.75580959     0.77490
O504        O  0.23732355  0.94102516  0.70112794    -0.58640
O505        O  0.21270711  0.01543772  0.71747210    -0.57090
O506        O  0.14697718  0.87865560  0.71369438    -0.57080
O507        O  0.16290199  0.94246157  0.74659056    -0.56250
O508        O  0.12273839  0.90848305  0.83142794    -0.57460
C509        C  0.18752933  0.01950847  0.82379022     0.75170
O510        O  0.24794955  0.95902646  0.83081271    -0.58620
C511        C  0.11971642  0.87889472  0.82499026     0.75140
C512        C  0.19206273  0.94948764  0.77760733     0.77530
Cd513      Cd  0.18771440  0.95147759  0.82033529     1.37460
O514        O  0.16087797  0.98867043  0.83044973    -0.57460
O515        O  0.16441663  0.94565858  0.78687612    -0.56270
C516        C  0.24196879  0.95811976  0.84929794     0.77490
O517        O  0.21916009  0.95420288  0.78804920    -0.58640
O518        O  0.21496119  0.01939424  0.81662097    -0.57090
O519        O  0.14893741  0.88223597  0.81786583    -0.57080
O520        O  0.21068429  0.95273178  0.85410573    -0.56250
O521        O  0.11761793  0.09234085  0.70245388    -0.57460
C522        C  0.18490008  0.05006656  0.70978297     0.75170
O523        O  0.24323049  0.17213011  0.70090450    -0.58620
C524        C  0.11819001  0.12161455  0.70712349     0.75140
C525        C  0.18750956  0.12387053  0.75492557     0.77530
Cd526      Cd  0.18292984  0.11699049  0.71249575     1.37460
O527        O  0.15727349  0.05062858  0.70314333    -0.57460
O528        O  0.16149396  0.09583981  0.74575026    -0.56270
C529        C  0.23670731  0.16328968  0.68268052     0.77490
O530        O  0.21275033  0.15032333  0.74446788    -0.58640
O531        O  0.21171805  0.08040135  0.71692207    -0.57090
O532        O  0.14912037  0.14939934  0.71304132    -0.57080
O533        O  0.20495811  0.13476828  0.67853242    -0.56250
O534        O  0.11735535  0.09519853  0.82897178    -0.57460
C535        C  0.18615879  0.05341079  0.82344484     0.75170
O536        O  0.21244436  0.15131306  0.78703413    -0.58620
C537        C  0.11789279  0.12416690  0.82365112     0.75140
C538        C  0.23474883  0.16811847  0.84901295     0.77530
Cd539      Cd  0.18258465  0.11924129  0.81912211     1.37460
O540        O  0.15778700  0.05341726  0.82924133    -0.57460
O541        O  0.20230164  0.14064923  0.85303723    -0.56270
C542        C  0.18739648  0.12432928  0.77666640     0.77490
O543        O  0.24297273  0.17398489  0.83073334    -0.58640
O544        O  0.21294711  0.08382335  0.81648302    -0.57090
O545        O  0.14861009  0.15132604  0.81717776    -0.57080
O546        O  0.16137116  0.09661207  0.78593639    -0.56250
O547        O  0.05277848  0.09417157  0.70212252    -0.57460
C548        C  0.94299904  0.05309690  0.70741035     0.75170
O549        O  0.02083599  0.15427464  0.74375707    -0.58620
C550        C  0.08414872  0.12254405  0.70696884     0.75140
C551        C  0.01360462  0.16951023  0.68233745     0.77530
Cd552      Cd  0.01573004  0.12102291  0.71173803     1.37470
O553        O  0.97219382  0.05571203  0.70078653    -0.57460
O554        O  0.00979167  0.13857443  0.67803696    -0.56270
C555        C  0.01566740  0.12721411  0.75441022     0.77490
O556        O  0.01971528  0.17914314  0.70045637    -0.58640
O557        O  0.94703681  0.08227267  0.71521072    -0.57090
O558        O  0.08435631  0.15105560  0.71277840    -0.57080
O559        O  0.01056117  0.09868853  0.74536723    -0.56250
O560        O  0.97283834  0.05901664  0.83107814    -0.57460
C561        C  0.08403953  0.12544905  0.82380460     0.75170
O562        O  0.02136436  0.15561402  0.78638697    -0.58620
C563        C  0.94361174  0.05524569  0.82364675     0.75140
C564        C  0.01386138  0.17603370  0.84646101     0.77530
Cd565      Cd  0.01558417  0.12390340  0.81901442     1.37470
O566        O  0.05300083  0.09800310  0.82969237    -0.57460
O567        O  0.01402932  0.14773739  0.85227852    -0.56270
C568        C  0.01561230  0.12777906  0.77620336     0.77490
O569        O  0.01594810  0.18110476  0.82786780    -0.58640
O570        O  0.08404013  0.15329674  0.81705501    -0.57090
O571        O  0.94721890  0.08372747  0.81526356    -0.57080
O572        O  0.00986424  0.09952080  0.78574141    -0.56250
O573        O  0.90295714  0.98784051  0.70010422    -0.57460
C574        C  0.83644912  0.87668634  0.70669175     0.75170
O575        O  0.80469596  0.93626531  0.74373494    -0.58620
C576        C  0.90665851  0.01737330  0.70715717     0.75140
C577        C  0.78569132  0.94572895  0.68383300     0.77530
Cd578      Cd  0.83795855  0.94527164  0.71142720     1.37460
O579        O  0.86378218  0.90776595  0.70072199    -0.57460
O580        O  0.81327903  0.94436689  0.67812400    -0.56270
C581        C  0.83319976  0.94476193  0.75406698     0.77490
O582        O  0.78210090  0.94679837  0.70244760    -0.58640
O583        O  0.80883149  0.87676998  0.71360325    -0.57090
O584        O  0.87796382  0.01415391  0.71493542    -0.57080
O585        O  0.86248884  0.95330079  0.74472775    -0.56250
O586        O  0.86477359  0.90916558  0.82907686    -0.57460
C587        C  0.90772961  0.01907725  0.82352672     0.75170
O588        O  0.80490564  0.93576018  0.78622968    -0.58620
C589        C  0.83709415  0.87811527  0.82314461     0.75140
C590        C  0.78906109  0.95133889  0.84532797     0.77530
Cd591      Cd  0.83924584  0.94687219  0.81841359     1.37470
O592        O  0.90407065  0.98975943  0.83084622    -0.57460
O593        O  0.80890208  0.93904347  0.85098278    -0.56270
C594        C  0.83344457  0.94497244  0.77581744     0.77490
O595        O  0.79053529  0.95903364  0.82707562    -0.58640
O596        O  0.87937373  0.01533131  0.81501617    -0.57090
O597        O  0.80950707  0.87840553  0.81625809    -0.57080
O598        O  0.86319041  0.95455340  0.78506812    -0.56250
O599        O  0.86654365  0.84322200  0.70158392    -0.57460
C600        C  0.90833360  0.77463648  0.70784124     0.75170
O601        O  0.80950162  0.74831881  0.74343209    -0.58620
C602        C  0.83759753  0.84268397  0.70677912     0.75140
C603        C  0.79588211  0.72488050  0.68143748     0.77530
Cd604      Cd  0.84244379  0.77788386  0.71151942     1.37460
O605        O  0.90829638  0.80291448  0.70175212    -0.57460
O606        O  0.82205090  0.75805371  0.67756814    -0.56270
C607        C  0.83635711  0.77328786  0.75389203     0.77490
O608        O  0.78913220  0.71660372  0.69968775    -0.58640
O609        O  0.87801514  0.74792069  0.71489103    -0.57090
O610        O  0.81033343  0.81183003  0.71309205    -0.57080
O611        O  0.86443573  0.79905971  0.74473305    -0.56250
O612        O  0.90808389  0.80424069  0.82745540    -0.57460
C613        C  0.83780243  0.84385692  0.82304532     0.75170
O614        O  0.80965235  0.74815423  0.78598858    -0.58620
C615        C  0.90836202  0.77600830  0.82148815     0.75140
C616        C  0.79389613  0.72546876  0.84770815     0.77530
Cd617      Cd  0.84195787  0.77855367  0.81805291     1.37470
O618        O  0.86638635  0.84391967  0.82848930    -0.57460
O619        O  0.82370841  0.75624304  0.85187030    -0.56270
C620        C  0.83624730  0.77341996  0.77562292     0.77490
O621        O  0.78520044  0.71925105  0.82946536    -0.58640
O622        O  0.81052177  0.81323189  0.81644744    -0.57090
O623        O  0.87791805  0.74876296  0.81472495    -0.57080
O624        O  0.86389345  0.79970390  0.78488691    -0.56250
C625        C  0.98449558  0.63210566  0.64046741    -0.05770
C626        C  0.96442148  0.64951499  0.63873330    -0.16900
C627        C  0.96906835  0.67664747  0.65233346     0.11430
C628        C  0.99488367  0.68734364  0.66816873    -0.05690
C629        C  0.01485659  0.66964454  0.67001705    -0.16930
C630        C  0.00985885  0.64210114  0.65638327     0.11460
S631        S  0.93972632  0.69501890  0.64906154    -0.31900
S632        S  0.03572349  0.62012997  0.66042433    -0.31900
H633        H  0.00907879  0.58526318  0.65203117     0.29470
H634        H  0.93124899  0.69358460  0.66937271     0.29460
H635        H  0.94446642  0.64153125  0.62672991     0.20060
H636        H  0.03449741  0.67731587  0.68215028     0.20060
C637        C  0.00867849  0.19151359  0.66697193    -0.05770
C638        C  0.98236628  0.17143453  0.65192190    -0.16900
C639        C  0.97296032  0.18939315  0.63798663     0.11430
C640        C  0.99125108  0.22886201  0.63841818    -0.05690
C641        C  0.01795998  0.24917223  0.65330584    -0.16930
C642        C  0.02714177  0.23102227  0.66742941     0.11460
S643        S  0.93516652  0.15983946  0.62112700    -0.31900
S644        S  0.06360419  0.25992132  0.68501774    -0.31900
H645        H  0.07883073  0.23753548  0.68523676     0.29470
H646        H  0.91783984  0.18017807  0.62288140     0.29460
H647        H  0.96748834  0.14109754  0.65157649     0.20060
H648        H  0.03228952  0.27945810  0.65371841     0.20060
C649        C  0.96186587  0.45269322  0.60389809    -0.05770
C650        C  0.98882791  0.45134546  0.59253116    -0.16900
C651        C  0.99011623  0.41905428  0.59188051     0.11430
C652        C  0.96397753  0.38719547  0.60288056    -0.05690
C653        C  0.93730888  0.38863972  0.61441914    -0.16930
C654        C  0.93629628  0.42108121  0.61528221     0.11460
S655        S  0.02257566  0.41853419  0.57492259    -0.31900
S656        S  0.90217079  0.42046477  0.63142992    -0.31900
H657        H  0.92520281  0.45822641  0.63724418     0.29470
H658        H  0.04119316  0.41176762  0.58997165     0.29460
H659        H  0.00807220  0.47508804  0.58338679     0.20060
H660        H  0.91713539  0.36427506  0.62290316     0.20060
C661        C  0.01898112  0.59773860  0.49300338    -0.05770
C662        C  0.04521528  0.60882331  0.50848655    -0.16900
C663        C  0.03415012  0.59940623  0.52823401     0.11430
C664        C  0.99578615  0.57925428  0.53300165    -0.05690
C665        C  0.96943820  0.56846323  0.51761332    -0.16930
C666        C  0.98054128  0.57778273  0.49777663     0.11460
S667        S  0.07035367  0.61166840  0.54633163    -0.31900
S668        S  0.94440289  0.56465158  0.47953840    -0.31900
H669        H  0.96468766  0.59846969  0.46891845     0.29470
H670        H  0.05033390  0.57721020  0.55641045     0.29460
H671        H  0.07480017  0.62360559  0.50513460     0.20060
H672        H  0.93988926  0.55335115  0.52111163     0.20060
C673        C  0.02745155  0.31453248  0.49695379    -0.05770
C674        C  0.99785816  0.31844583  0.50227180    -0.16900
C675        C  0.98502778  0.31288211  0.52180623     0.11430
C676        C  0.00124086  0.30194866  0.53638973    -0.05690
C677        C  0.03080667  0.29790336  0.53114450    -0.16930
C678        C  0.04373678  0.30354944  0.51154225     0.11460
S679        S  0.94948178  0.32252456  0.52740772    -0.31900
S680        S  0.07964610  0.29444276  0.50594490    -0.31900
H681        H  0.06535548  0.27881962  0.48708368     0.29470
H682        H  0.96424911  0.33888622  0.54608915     0.29460
H683        H  0.98568527  0.32753808  0.49131454     0.20060
H684        H  0.04306011  0.28910824  0.54222581     0.20060
C685        C  0.07043056  0.51580072  0.42972956    -0.05770
C686        C  0.08185640  0.50654018  0.44716590    -0.16900
C687        C  0.08111128  0.47329600  0.44870805     0.11430
C688        C  0.06968850  0.44875043  0.43224807    -0.05690
C689        C  0.05789988  0.45764523  0.41482185    -0.16930
C690        C  0.05861943  0.49107115  0.41329012     0.11460
S691        S  0.09306370  0.46292278  0.47250953    -0.31900
S692        S  0.04627159  0.50145323  0.38967244    -0.31900
H693        H  0.07435156  0.53986880  0.39021823     0.29470
H694        H  0.06570967  0.42428674  0.47181603     0.29460
H695        H  0.09032324  0.52480970  0.46002624     0.20060
H696        H  0.04934462  0.43910159  0.40208170     0.20060
C697        C  0.17907135  0.35745978  0.43807496    -0.05770
C698        C  0.17779654  0.32530437  0.43163548    -0.16900
C699        C  0.21002902  0.32439001  0.43071503     0.11430
C700        C  0.24446375  0.35606765  0.43684090    -0.05690
C701        C  0.24602468  0.38854552  0.44297950    -0.16930
C702        C  0.21358227  0.38940408  0.44394413     0.11460
S703        S  0.20548381  0.28247123  0.42084638    -0.31900
S704        S  0.21767073  0.43086060  0.45408224    -0.31900
H705        H  0.18376322  0.41148560  0.46459836     0.29470
H706        H  0.24014503  0.30114812  0.41101223     0.29460
H707        H  0.15148935  0.30084044  0.42683249     0.20060
H708        H  0.27236463  0.41277079  0.44792227     0.20060
C709        C  0.44767026  0.45714827  0.43675949    -0.05770
C710        C  0.46275146  0.47532283  0.45497619    -0.16900
C711        C  0.49776947  0.50875251  0.45602348     0.11430
C712        C  0.51810322  0.52525334  0.43837855    -0.05690
C713        C  0.50313707  0.50708405  0.42015304    -0.16930
C714        C  0.46799048  0.47360391  0.41912094     0.11460
S715        S  0.51564091  0.52777374  0.48043300    -0.31900
S716        S  0.44968999  0.45469834  0.39480318    -0.31900
H717        H  0.41266143  0.44317338  0.39934735     0.29470
H718        H  0.55287936  0.53976189  0.47610547     0.29460
H719        H  0.44765964  0.46273432  0.46863447     0.20060
H720        H  0.51824741  0.51981748  0.40652946     0.20060
C721        C  0.73367218  0.64233347  0.63591762    -0.05770
C722        C  0.76940365  0.67352075  0.63186027    -0.16900
C723        C  0.79037927  0.70033302  0.64640628     0.11430
C724        C  0.77483495  0.69714524  0.66546712    -0.05690
C725        C  0.73856641  0.66641122  0.66937427    -0.16930
C726        C  0.71779789  0.63918167  0.65481187     0.11460
S727        S  0.83787520  0.73586858  0.63999447    -0.31900
S728        S  0.67093444  0.60191431  0.66104428    -0.31900
H729        H  0.65610997  0.59921950  0.64195670     0.29470
H730        H  0.85317726  0.73118358  0.65746762     0.29460
H731        H  0.78211117  0.67593037  0.61753044     0.20060
H732        H  0.72612532  0.66372462  0.68380894     0.20060
C733        C  0.85062863  0.54462039  0.58515570    -0.05770
C734        C  0.81594368  0.51138211  0.58861140    -0.16900
C735        C  0.78274064  0.51086237  0.58833690     0.11430
C736        C  0.78417839  0.54453385  0.58504188    -0.05690
C737        C  0.81860892  0.57736112  0.58081590    -0.16930
C738        C  0.85172928  0.57799741  0.58109279     0.11460
S739        S  0.73958456  0.46624040  0.59156124    -0.31900
S740        S  0.89433468  0.62308938  0.57768866    -0.31900
H741        H  0.91170045  0.61985177  0.59467783     0.29470
H742        H  0.71949057  0.47327838  0.57754119     0.29460
H743        H  0.81461204  0.48550134  0.59140389     0.20060
H744        H  0.82006882  0.60338542  0.57826639     0.20060
C745        C  0.66994408  0.59460290  0.53424320    -0.05770
C746        C  0.69179389  0.59692243  0.51792744    -0.16900
C747        C  0.68710318  0.60792287  0.49918797     0.11430
C748        C  0.65958719  0.61646523  0.49647275    -0.05690
C749        C  0.63866221  0.61546383  0.51284287    -0.16930
C750        C  0.64301448  0.60411030  0.53152897     0.11460
S751        S  0.71787288  0.61162106  0.47963330    -0.31900
S752        S  0.61156674  0.60018449  0.55070651    -0.31900
H753        H  0.60012518  0.56319533  0.55561363     0.29470
H754        H  0.72124698  0.64339403  0.47080820     0.29460
H755        H  0.71305221  0.59042027  0.51975787     0.20060
H756        H  0.61722924  0.62169770  0.51086153     0.20060
C757        C  0.31789503  0.22744674  0.63720484    -0.05770
C758        C  0.29218988  0.18883676  0.63471456    -0.16900
C759        C  0.26633137  0.16730930  0.64944600     0.11430
C760        C  0.26469220  0.18475678  0.66700700    -0.05690
C761        C  0.29006512  0.22351691  0.66945563    -0.16930
C762        C  0.31635927  0.24504130  0.65472041     0.11460
S763        S  0.23841403  0.11730842  0.64545004    -0.31900
S764        S  0.34603276  0.29483146  0.65883650    -0.31900
H765        H  0.34580774  0.30452512  0.63887289     0.29470
H766        H  0.24287916  0.10832715  0.66494981     0.29460
H767        H  0.29350677  0.17477880  0.62157670     0.20060
H768        H  0.28892878  0.23729106  0.68275641     0.20060
C769        C  0.35954117  0.31721659  0.49798984    -0.05770
C770        C  0.36954271  0.29074873  0.49953993    -0.16900
C771        C  0.37700299  0.28100707  0.51796360     0.11430
C772        C  0.37326482  0.29719766  0.53554187    -0.05690
C773        C  0.36295909  0.32347767  0.53396053    -0.16930
C774        C  0.35674071  0.33412894  0.51547274     0.11460
S775        S  0.39317088  0.24943632  0.51766516    -0.31900
S776        S  0.34774178  0.37113380  0.51528184    -0.31900
H777        H  0.37214886  0.39054923  0.49939415     0.29470
H778        H  0.42422376  0.27234199  0.52996708     0.29460
H779        H  0.37221007  0.27794950  0.48623260     0.20060
H780        H  0.36061225  0.33660424  0.54721495     0.20060
C781        C  0.51419378  0.38046402  0.59495501    -0.05770
C782        C  0.53118198  0.39569520  0.57658444    -0.16900
C783        C  0.56465257  0.43060977  0.57537555     0.11430
C784        C  0.58240119  0.45065286  0.59298444    -0.05690
C785        C  0.56553351  0.43543862  0.61138090    -0.16930
C786        C  0.53199704  0.40037858  0.61257215     0.11460
S787        S  0.58200360  0.44884359  0.55085719    -0.31900
S788        S  0.51467568  0.38167301  0.63697720    -0.31900
H789        H  0.50216170  0.34447132  0.63185850     0.29470
H790        H  0.59398666  0.48606062  0.55562617     0.29460
H791        H  0.51757993  0.38086938  0.56295778     0.20060
H792        H  0.57924168  0.45034546  0.62496163     0.20060
C793        C  0.25241563  0.78038221  0.43234604    -0.05770
C794        C  0.23731815  0.76248527  0.45056923    -0.16900
C795        C  0.20459033  0.72695469  0.45143559     0.11430
C796        C  0.18551888  0.70887294  0.43366928    -0.05690
C797        C  0.20208543  0.72532426  0.41538787    -0.16930
C798        C  0.23505644  0.76092105  0.41451700     0.11460
S799        S  0.18878523  0.70641189  0.47571399    -0.31900
S800        S  0.25130885  0.78107423  0.39026768    -0.31900
H801        H  0.25428267  0.81489989  0.39514360     0.29470
H802        H  0.17428218  0.66941024  0.46927753     0.29460
H803        H  0.25092915  0.77648795  0.46435929     0.20060
H804        H  0.18784688  0.71168591  0.40165813     0.20060
C805        C  0.59794183  0.72052275  0.44281179    -0.05770
C806        C  0.58708135  0.72999911  0.42528465    -0.16900
C807        C  0.58489592  0.76167549  0.42437432     0.11430
C808        C  0.59442892  0.78498324  0.44128369    -0.05690
C809        C  0.60323162  0.77430725  0.45911399    -0.16930
C810        C  0.60428584  0.74199948  0.46018969     0.11460
S811        S  0.57360662  0.77277327  0.40067477    -0.31900
S812        S  0.61352544  0.72972691  0.48418702    -0.31900
H813        H  0.58902246  0.69084514  0.48145484     0.29470
H814        H  0.54171197  0.77100146  0.40805000     0.29460
H815        H  0.58186489  0.71360051  0.41191025     0.20060
H816        H  0.60965588  0.79146212  0.47230840     0.20060
C817        C  0.44919450  0.90252187  0.42989410    -0.05770
C818        C  0.45965643  0.89106869  0.44686255    -0.16900
C819        C  0.49258825  0.89129675  0.44736909     0.11430
C820        C  0.51630842  0.90363749  0.43067881    -0.05690
C821        C  0.50677575  0.91629878  0.41387326    -0.16930
C822        C  0.47315447  0.91525052  0.41316316     0.11460
S823        S  0.50424443  0.87763028  0.47017280    -0.31900
S824        S  0.46149098  0.92827602  0.39015821    -0.31900
H825        H  0.42355418  0.89906083  0.39059786     0.29470
H826        H  0.50007657  0.84516874  0.46177444     0.29460
H827        H  0.44207979  0.88194457  0.45995092     0.20060
H828        H  0.52479259  0.92553978  0.40096673     0.20060
C829        C  0.71941767  0.96349952  0.64219728    -0.05770
C830        C  0.73652267  0.94449781  0.63613521    -0.16900
C831        C  0.75624946  0.93614947  0.64955157     0.11430
C832        C  0.76008843  0.94785063  0.66960496    -0.05690
C833        C  0.74137749  0.96511914  0.67589367    -0.16930
C834        C  0.72163269  0.97347517  0.66248897     0.11460
S835        S  0.77509351  0.90984669  0.64010814    -0.31900
S836        S  0.70290129  0.99979667  0.67205542    -0.31900
H837        H  0.71976682  0.02762781  0.65732154     0.29470
H838        H  0.76622713  0.88751731  0.65720314     0.29460
H839        H  0.73457715  0.93605130  0.62075367     0.20060
H840        H  0.74394866  0.97425692  0.69118004     0.20060
C841        C  0.65392029  0.95523144  0.53887075    -0.05770
C842        C  0.68276710  0.95783017  0.52734858    -0.16900
C843        C  0.67671377  0.94555961  0.50756213     0.11430
C844        C  0.64127351  0.93133653  0.49877769    -0.05690
C845        C  0.61228594  0.92808503  0.51044331    -0.16930
C846        C  0.61827068  0.94028390  0.53017739     0.11460
S847        S  0.71473578  0.94716808  0.49472421    -0.31900
S848        S  0.57998864  0.93859769  0.54283723    -0.31900
H849        H  0.60204943  0.97474774  0.55108895     0.29470
H850        H  0.69198260  0.91264155  0.48492231     0.29460
H851        H  0.71012924  0.96898387  0.53391037     0.20060
H852        H  0.58498632  0.91735296  0.50388390     0.20060
C853        C  0.76865866  0.12220957  0.59998355    -0.05770
C854        C  0.78190116  0.14155806  0.58190207    -0.16900
C855        C  0.81604161  0.17590803  0.58077132     0.11430
C856        C  0.83849425  0.19098473  0.59796452    -0.05690
C857        C  0.82414920  0.17323999  0.61627984    -0.16930
C858        C  0.78942050  0.13945725  0.61755110     0.11460
S859        S  0.82914522  0.19904594  0.55698464    -0.31900
S860        S  0.77490542  0.11889407  0.64184750    -0.31900
H861        H  0.74027743  0.11582177  0.64060416     0.29470
H862        H  0.84708969  0.23551717  0.56492427     0.29460
H863        H  0.76583170  0.12956590  0.56839126     0.20060
H864        H  0.84081474  0.18488745  0.62964592     0.20060
C865        C  0.26885236  0.96242716  0.66956626    -0.05770
C866        C  0.28679276  0.99644846  0.65916936    -0.16900
C867        C  0.31456588  0.00499366  0.64512324     0.11430
C868        C  0.32456617  0.97876726  0.64115556    -0.05690
C869        C  0.30621804  0.94438877  0.65121174    -0.16930
C870        C  0.27854232  0.93596210  0.66538674     0.11460
S871        S  0.33579894  0.04877791  0.63167391    -0.31900
S872        S  0.25573307  0.89055628  0.67698476    -0.31900
H873        H  0.22000291  0.88509324  0.67715084     0.29470
H874        H  0.31669259  0.06309557  0.64130669     0.29460
H875        H  0.27918230  0.01659468  0.66222987     0.20060
H876        H  0.31352152  0.92403264  0.64802280     0.20060
C877        C  0.37407510  0.97228375  0.53416862    -0.05770
C878        C  0.40130368  0.99292748  0.51962157    -0.16900
C879        C  0.39622220  0.98083745  0.49987868     0.11430
C880        C  0.36259358  0.94762091  0.49418351    -0.05690
C881        C  0.33475030  0.92777692  0.50857728    -0.16930
C882        C  0.33987244  0.93989951  0.52834023     0.11460
S883        S  0.43496627  0.00758669  0.48323223    -0.31900
S884        S  0.30127142  0.91342466  0.54510645    -0.31900
H885        H  0.30640924  0.94516094  0.55500932     0.29470
H886        H  0.43399829  0.97601506  0.47578098     0.29460
H887        H  0.42775268  0.01782945  0.52383067     0.20060
H888        H  0.30851962  0.90260732  0.50437887     0.20060
C889        C  0.50597797  0.00285926  0.59962532    -0.05770
C890        C  0.51335933  0.98785153  0.61624678    -0.16900
C891        C  0.54677340  0.98871962  0.61776969     0.11430
C892        C  0.57310642  0.00422563  0.60214278    -0.05690
C893        C  0.56518975  0.01848451  0.58540600    -0.16930
C894        C  0.53190773  0.01742457  0.58382035     0.11460
S895        S  0.55501029  0.97171865  0.64044863    -0.31900
S896        S  0.52351061  0.03340370  0.56074722    -0.31900
H897        H  0.48500425  0.00587035  0.56007152     0.29470
H898        H  0.59323520  0.99998520  0.64158083     0.29460
H899        H  0.49371539  0.97678668  0.62846667     0.20060
H900        H  0.58463947  0.02955288  0.57308951     0.20060
C901        C  0.43022337  0.12270275  0.59304104    -0.05770
C902        C  0.42582149  0.13570275  0.57476733    -0.16900
C903        C  0.42712909  0.16921619  0.57345861     0.11430
C904        C  0.43124294  0.18955270  0.59099234    -0.05690
C905        C  0.43815771  0.17785209  0.60907791    -0.16930
C906        C  0.43782752  0.14466998  0.61030800     0.11460
S907        S  0.42357674  0.18433969  0.54897605    -0.31900
S908        S  0.44347003  0.12910828  0.63428228    -0.31900
H909        H  0.45217836  0.16130606  0.64508060     0.29470
H910        H  0.44885519  0.22270822  0.55289391     0.29460
H911        H  0.42112478  0.11947116  0.56137439     0.20060
H912        H  0.44159244  0.19353115  0.62248883     0.20060
C913        C  0.45493650  0.90202208  0.10540973    -0.05770
C914        C  0.48943734  0.93603144  0.10307703    -0.16900
C915        C  0.52310378  0.93726254  0.10234446     0.11430
C916        C  0.52251430  0.90351772  0.10353672    -0.05690
C917        C  0.48798788  0.86980268  0.10662521    -0.16930
C918        C  0.45462688  0.86872022  0.10788032     0.11460
S919        S  0.56531955  0.98262242  0.09925078    -0.31900
S920        S  0.41282655  0.82380685  0.11301163    -0.31900
H921        H  0.39785354  0.83830287  0.12611517     0.29470
H922        H  0.58277918  0.97851903  0.11595193     0.29460
H923        H  0.49017508  0.96184815  0.10131783     0.20060
H924        H  0.48672786  0.84367445  0.10807192     0.20060
C925        C  0.76669415  0.95797388  0.85947091    -0.05770
C926        C  0.74614275  0.93141449  0.87428546    -0.16900
C927        C  0.72641688  0.93780458  0.88875786     0.11430
C928        C  0.72671795  0.97144153  0.88832765    -0.05690
C929        C  0.74657251  0.99734489  0.87305963    -0.16930
C930        C  0.76694638  0.99139464  0.85900059     0.11460
S931        S  0.70288627  0.90260107  0.90762908    -0.31900
S932        S  0.79503597  0.02901772  0.84185429    -0.31900
H933        H  0.82655164  0.02631020  0.84331910     0.29470
H934        H  0.72154379  0.92803575  0.92333684     0.29460
H935        H  0.74604303  0.90578813  0.87481548     0.20060
H936        H  0.74753388  0.02340915  0.87242427     0.20060
C937        C  0.66662690  0.96053817  0.99339199    -0.05770
C938        C  0.63734789  0.92331568  0.99659688    -0.16900
C939        C  0.62839969  0.90795809  0.01568850     0.11430
C940        C  0.64840129  0.93058999  0.03232900    -0.05690
C941        C  0.67849449  0.96743698  0.02900897    -0.16930
C942        C  0.68756968  0.98270263  0.00991885     0.11460
S943        S  0.59192637  0.85910339  0.01748854    -0.31900
S944        S  0.72439901  0.03143457  0.00806458    -0.31900
H945        H  0.70336749  0.04086577  0.99618041     0.29470
H946        H  0.61274894  0.85095979  0.03033473     0.29460
H947        H  0.62141571  0.90581026  0.98406635     0.20060
H948        H  0.69425872  0.98522499  0.04148303     0.20060
C949        C  0.32331258  0.96998086  0.89259304    -0.05770
C950        C  0.29571995  0.97702046  0.89796809    -0.16900
C951        C  0.26980024  0.97447944  0.88416561     0.11430
C952        C  0.26991973  0.96292936  0.86441557    -0.05690
C953        C  0.29723686  0.95535284  0.85907210    -0.16930
C954        C  0.32366652  0.95856308  0.87287696     0.11460
S955        S  0.23944861  0.98932876  0.89251756    -0.31900
S956        S  0.35624570  0.94659389  0.86452558    -0.31900
H957        H  0.35597947  0.92936130  0.88243692     0.29470
H958        H  0.24548158  0.01153608  0.87566246     0.29460
H959        H  0.29556763  0.98670190  0.91285567     0.20060
H960        H  0.29770761  0.94627970  0.84408628     0.20060
C961        C  0.38789183  0.96677394  0.99768131    -0.05770
C962        C  0.39767778  0.99341421  0.01287213    -0.16900
C963        C  0.38940900  0.98281406  0.03281499     0.11430
C964        C  0.37148346  0.94457947  0.03797345    -0.05690
C965        C  0.36142564  0.91797624  0.02276896    -0.16930
C966        C  0.36981542  0.92854066  0.00288372     0.11460
S967        S  0.40105580  0.01929102  0.05067401    -0.31900
S968        S  0.35849095  0.89187727  0.98521409    -0.31900
H969        H  0.39344532  0.91204322  0.97570510     0.29470
H970        H  0.36720585  0.99831925  0.06113555     0.29460
H971        H  0.41112258  0.02282881  0.00916663     0.20060
H972        H  0.34807212  0.88855571  0.02643966     0.20060
C973        C  0.51313424  0.00757381  0.92683558    -0.05770
C974        C  0.54627416  0.03993781  0.93341988    -0.16900
C975        C  0.58033872  0.04233777  0.93338544     0.11430
C976        C  0.58171555  0.01123345  0.92711779    -0.05690
C977        C  0.54896022  0.97932547  0.91979500    -0.16930
C978        C  0.51489768  0.97731368  0.91936324     0.11460
S979        S  0.62099247  0.08631424  0.94119401    -0.31900
S980        S  0.47516109  0.93575779  0.90879718    -0.31900
H981        H  0.46211728  0.95533268  0.89839646     0.29470
H982        H  0.64455382  0.08631973  0.92651210     0.29460
H983        H  0.54573074  0.06370100  0.93890748     0.20060
H984        H  0.54972161  0.95550194  0.91464253     0.20060
C985        C  0.00461249  0.69643279  0.86248088    -0.05770
C986        C  0.99728809  0.66140320  0.85619960    -0.16900
C987        C  0.99230221  0.63414282  0.86988802     0.11430
C988        C  0.99381704  0.64144857  0.89049575    -0.05690
C989        C  0.00279003  0.67700561  0.89674333    -0.16930
C990        C  0.00861261  0.70453697  0.88310329     0.11460
S991        S  0.98474945  0.59097771  0.86005790    -0.31900
S992        S  0.02155060  0.74944706  0.89316920    -0.31900
H993        H  0.04967187  0.77008781  0.87899814     0.29470
H994        H  0.00557865  0.58687426  0.87494343     0.29460
H995        H  0.99492545  0.65492091  0.84048896     0.20060
H996        H  0.00450830  0.68325721  0.91246723     0.20060
C997        C  0.00234389  0.24420153  0.89027488    -0.05770
C998        C  0.99480419  0.24633924  0.87013828    -0.16900
C999        C  0.99861083  0.22504501  0.85551456     0.11430
C1000       C  0.01108273  0.20120005  0.86085200    -0.05690
C1001       C  0.02043502  0.20054618  0.88082820    -0.16930
C1002       C  0.01678745  0.22197220  0.89542834     0.11460
S1003       S  0.98438517  0.22778544  0.83068884    -0.31900
S1004       S  0.03165644  0.21986012  0.92020572    -0.31900
H1005       H  0.04938781  0.25859775  0.92367186     0.29470
H1006       H  0.96054278  0.18868049  0.82857524     0.29460
H1007       H  0.98382090  0.26321738  0.86579805     0.20060
H1008       H  0.03089533  0.18321540  0.88518132     0.20060
C1009       C  0.84295620  0.19790921  0.93617482    -0.05770
C1010       C  0.83189218  0.17755998  0.95405214    -0.16900
C1011       C  0.79822045  0.14267819  0.95552647     0.11430
C1012       C  0.77506094  0.12716998  0.93859727    -0.05690
C1013       C  0.78449642  0.14883729  0.92125205    -0.16930
C1014       C  0.81771185  0.18412799  0.91995606     0.11460
S1015       S  0.78533839  0.11870218  0.97916470    -0.31900
S1016       S  0.82595813  0.20977603  0.89720987    -0.31900
H1017       H  0.83956966  0.24430745  0.90686662     0.29470
H1018       H  0.81550010  0.14694455  0.99031265     0.29460
H1019       H  0.85036030  0.18834300  0.96679811     0.20060
H1020       H  0.76637894  0.13779926  0.90835155     0.20060
C1021       C  0.96762495  0.39638413  0.92865824    -0.05770
C1022       C  0.95632380  0.40678522  0.91164034    -0.16900
C1023       C  0.95586394  0.43962980  0.91140316     0.11430
C1024       C  0.96714165  0.46265232  0.92851542    -0.05690
C1025       C  0.97968395  0.45278370  0.94524925    -0.16930
C1026       C  0.97987349  0.41991628  0.94554238     0.11460
S1027       S  0.94080647  0.45067541  0.88887597    -0.31900
S1028       S  0.99529046  0.40911363  0.96806319    -0.31900
H1029       H  0.01104931  0.39116301  0.95867056     0.29470
H1030       H  0.96445705  0.48979293  0.89091316     0.29460
H1031       H  0.94697753  0.38879210  0.89865082     0.20060
H1032       H  0.98826033  0.47019319  0.95846186     0.20060
C1033       C  0.99403170  0.58679283  0.99804351    -0.05770
C1034       C  0.03237917  0.60363504  0.00153236    -0.16900
C1035       C  0.04691789  0.61113641  0.02078627     0.11430
C1036       C  0.02286215  0.60281787  0.03719880    -0.05690
C1037       C  0.98450492  0.58634428  0.03375724    -0.16930
C1038       C  0.96991867  0.57873948  0.01441549     0.11460
S1039       S  0.09600245  0.62875497  0.02329000    -0.31900
S1040       S  0.92074256  0.56042726  0.01169091    -0.31900
H1041       H  0.92523108  0.58255227  0.99504764     0.29470
H1042       H  0.09102742  0.60463567  0.03902598     0.29460
H1043       H  0.05110092  0.60954177  0.98918093     0.20060
H1044       H  0.96587271  0.58015098  0.04618946     0.20060
C1045       C  0.18805568  0.71510352  0.09621356    -0.05770
C1046       C  0.20204284  0.73468518  0.07830253    -0.16900
C1047       C  0.23737471  0.76762323  0.07730398     0.11430
C1048       C  0.25884704  0.78269463  0.09484439    -0.05690
C1049       C  0.24638416  0.76145234  0.11236213    -0.16930
C1050       C  0.21133228  0.72788019  0.11324212     0.11460
S1051       S  0.25342430  0.78860593  0.05314134    -0.31900
S1052       S  0.19699851  0.70464951  0.13690931    -0.31900
H1053       H  0.16220057  0.70104692  0.13641756     0.29470
H1054       H  0.29107418  0.80113263  0.05673844     0.29460
H1055       H  0.18519571  0.72430458  0.06491675     0.20060
H1056       H  0.26288533  0.77222305  0.12583242     0.20060
C1057       C  0.03630838  0.32788280  0.03185613    -0.05770
C1058       C  0.99804919  0.31057086  0.02782722    -0.16900
C1059       C  0.98443171  0.30343060  0.00839477     0.11430
C1060       C  0.00932794  0.31266174  0.99232223    -0.05690
C1061       C  0.04765327  0.33025887  0.99619911    -0.16930
C1062       C  0.06136749  0.33747744  0.01573428     0.11460
S1063       S  0.93522557  0.28472838  0.00517331    -0.31900
S1064       S  0.11071948  0.35726801  0.01894575    -0.31900
H1065       H  0.10604626  0.33296727  0.03451730     0.29470
H1066       H  0.94004451  0.30767048  0.98885847     0.29460
H1067       H  0.97855057  0.30365697  0.03990674     0.20060
H1068       H  0.06690592  0.33739182  0.98396670     0.20060
C1069       C  0.06410611  0.45049722  0.09937203    -0.05770
C1070       C  0.07298797  0.47158458  0.11691858    -0.16900
C1071       C  0.07367321  0.50502820  0.11742414     0.11430
C1072       C  0.06519583  0.51766277  0.10002161    -0.05690
C1073       C  0.05634877  0.49652673  0.08250109    -0.16930
C1074       C  0.05587168  0.46330018  0.08195111     0.11460
S1075       S  0.08735213  0.53114364  0.14038011    -0.31900
S1076       S  0.04638662  0.43960099  0.05831722    -0.31900
H1077       H  0.07262099  0.42932256  0.06061807     0.29470
H1078       H  0.10822711  0.56665818  0.13143397     0.29460
H1079       H  0.07987246  0.46217537  0.13023359     0.20060
H1080       H  0.05021762  0.50625637  0.06903716     0.20060
C1081       C  0.60036566  0.71520702  0.09276515    -0.05770
C1082       C  0.59937015  0.73062716  0.07449101    -0.16900
C1083       C  0.59907462  0.76335215  0.07363463     0.11430
C1084       C  0.59968880  0.78136233  0.09139840    -0.05690
C1085       C  0.59856637  0.76491558  0.10966656    -0.16930
C1086       C  0.59884020  0.73212269  0.11057085     0.11460
S1087       S  0.59693688  0.78028902  0.04951120    -0.31900
S1088       S  0.60036830  0.71534815  0.13487832    -0.31900
H1089       H  0.56687023  0.68046257  0.13190423     0.29470
H1090       H  0.63520963  0.80863050  0.04978994     0.29460
H1091       H  0.59962813  0.71755371  0.06069460     0.20060
H1092       H  0.59900106  0.77851357  0.12340163     0.20060
C1093       C  0.17742593  0.36099607  0.09011860    -0.05770
C1094       C  0.17398982  0.32653666  0.09320936    -0.16900
C1095       C  0.20525994  0.32409288  0.09447054     0.11430
C1096       C  0.24112151  0.35673782  0.09216835    -0.05690
C1097       C  0.24489019  0.39138566  0.08923550    -0.16930
C1098       C  0.21334608  0.39379467  0.08787518     0.11460
S1099       S  0.19746429  0.27866728  0.09987605    -0.31900
S1100       S  0.22068795  0.43876592  0.08200068    -0.31900
H1101       H  0.18947171  0.42427147  0.06932823     0.29470
H1102       H  0.22945558  0.29232983  0.11186339     0.29460
H1103       H  0.14662727  0.30125021  0.09528758     0.20060
H1104       H  0.27242928  0.41639481  0.08712799     0.20060
C1105       C  0.51029382  0.52187837  0.09316007    -0.05770
C1106       C  0.49295892  0.50631736  0.07483890    -0.16900
C1107       C  0.45934996  0.47139645  0.07374339     0.11430
C1108       C  0.44178717  0.45175738  0.09142978    -0.05690
C1109       C  0.45889061  0.46758724  0.10976986    -0.16930
C1110       C  0.49255014  0.50254622  0.11083570     0.11460
S1111       S  0.44179414  0.45257151  0.04928468    -0.31900
S1112       S  0.51027423  0.52181908  0.13517843    -0.31900
H1113       H  0.52366270  0.55907961  0.12981425     0.29470
H1114       H  0.43098031  0.41575033  0.05414480     0.29460
H1115       H  0.50648090  0.52077219  0.06117675     0.20060
H1116       H  0.44539166  0.45311994  0.12342676     0.20060
C1117       C  0.73602762  0.64373233  0.89387178    -0.05770
C1118       C  0.71592405  0.64356721  0.87723688    -0.16900
C1119       C  0.73335133  0.67070562  0.86227588     0.11430
C1120       C  0.77216348  0.69787577  0.86352375    -0.05690
C1121       C  0.79203935  0.69789645  0.88018318    -0.16930
C1122       C  0.77458172  0.67152083  0.89526879     0.11460
S1123       S  0.70428486  0.66996658  0.84253872    -0.31900
S1124       S  0.80394987  0.67287007  0.91497189    -0.31900
H1125       H  0.78739103  0.68367229  0.92928049     0.29470
H1126       H  0.72263100  0.70919549  0.84138396     0.29460
H1127       H  0.68626463  0.62259688  0.87607609     0.20060
H1128       H  0.82189013  0.71815738  0.88128357     0.20060
C1129       C  0.78044193  0.54416252  0.94412029    -0.05770
C1130       C  0.77893146  0.51169289  0.93813025    -0.16900
C1131       C  0.81064735  0.50956168  0.93911898     0.11430
C1132       C  0.84521619  0.54137927  0.94524473    -0.05690
C1133       C  0.84600115  0.57314631  0.95208321    -0.16930
C1134       C  0.81428453  0.57498486  0.95151828     0.11460
S1135       S  0.80463181  0.46522866  0.93300493    -0.31900
S1136       S  0.81982262  0.61855600  0.95921341    -0.31900
H1137       H  0.79656243  0.61856240  0.94437523     0.29470
H1138       H  0.82686938  0.46648930  0.94889712     0.29460
H1139       H  0.75267425  0.48756783  0.93302274     0.20060
H1140       H  0.87201760  0.59771238  0.95707648     0.20060
C1141       C  0.66718653  0.59392105  0.99495354    -0.05770
C1142       C  0.63024938  0.57523337  0.00179761    -0.16900
C1143       C  0.62228632  0.57977687  0.02131528     0.11430
C1144       C  0.65180562  0.60408445  0.03421794    -0.05690
C1145       C  0.68861321  0.62388232  0.02726458    -0.16930
C1146       C  0.69665101  0.61920571  0.00774807     0.11460
S1147       S  0.57383507  0.55458551  0.02867436    -0.31900
S1148       S  0.74474939  0.64734962  0.99990014    -0.31900
H1149       H  0.73652015  0.65215208  0.98029835     0.29470
H1150       H  0.57966807  0.54779166  0.04832866     0.29460
H1151       H  0.60748786  0.55580624  0.99212092     0.20060
H1152       H  0.71112418  0.64355166  0.03700016     0.20060
C1153       C  0.26177614  0.19018626  0.86513168    -0.05770
C1154       C  0.25484797  0.17357083  0.88397650    -0.16900
C1155       C  0.28118025  0.18955139  0.89927437     0.11430
C1156       C  0.31555656  0.22395968  0.89607854    -0.05690
C1157       C  0.32178937  0.24147149  0.87748190    -0.16930
C1158       C  0.29532389  0.22530925  0.86213786     0.11460
S1159       S  0.26954177  0.16291797  0.92192429    -0.31900
S1160       S  0.30591731  0.25145870  0.83938811    -0.31900
H1161       H  0.26938876  0.24334438  0.83678896     0.29470
H1162       H  0.30191598  0.16154712  0.92147559     0.29460
H1163       H  0.22930756  0.14666774  0.88662600     0.20060
H1164       H  0.34755368  0.26814710  0.87481329     0.20060
C1165       C  0.42861327  0.18447034  0.94072998    -0.05770
C1166       C  0.43386390  0.17187697  0.92251072    -0.16900
C1167       C  0.43379806  0.13894507  0.92131569     0.11430
C1168       C  0.42938026  0.11855793  0.93881930    -0.05690
C1169       C  0.42660856  0.13255140  0.95718357    -0.16930
C1170       C  0.42676426  0.16549678  0.95837529     0.11460
S1171       S  0.43577507  0.12278555  0.89684882    -0.31900
S1172       S  0.42508373  0.18197028  0.98284395    -0.31900
H1173       H  0.44855073  0.22022358  0.97814438     0.29470
H1174       H  0.40530094  0.08592627  0.89998814     0.29460
H1175       H  0.43543401  0.18630573  0.90891129     0.20060
H1176       H  0.42416024  0.11761301  0.97074078     0.20060
C1177       C  0.35068055  0.30288635  0.03478831    -0.05770
C1178       C  0.38519770  0.30662766  0.03193351    -0.16900
C1179       C  0.39565913  0.30114370  0.01328149     0.11430
C1180       C  0.37081102  0.29087802  0.99708055    -0.05690
C1181       C  0.33583800  0.28606349  0.99995070    -0.16930
C1182       C  0.32518893  0.29123081  0.01871606     0.11460
S1183       S  0.44211770  0.31018031  0.01087029    -0.31900
S1184       S  0.27829144  0.28090448  0.02131502    -0.31900
H1185       H  0.27305945  0.26599889  0.04057721     0.29470
H1186       H  0.44890879  0.32716574  0.99208962     0.29460
H1187       H  0.40507475  0.31584848  0.04407053     0.20060
H1188       H  0.31634006  0.27720862  0.98764296     0.20060
C1189       C  0.51374164  0.37697683  0.93739675    -0.05770
C1190       C  0.52356959  0.39935259  0.92028297    -0.16900
C1191       C  0.55816671  0.43332925  0.91875395     0.11430
C1192       C  0.58330197  0.44628411  0.93496592    -0.05690
C1193       C  0.57385492  0.42374133  0.95190755    -0.16930
C1194       C  0.53983724  0.38935903  0.95327231     0.11460
S1195       S  0.56914517  0.45785650  0.89543144    -0.31900
S1196       S  0.53122944  0.36391306  0.97613039    -0.31900
H1197       H  0.53035863  0.33379119  0.96668069     0.29470
H1198       H  0.60710661  0.46969578  0.89569909     0.29460
H1199       H  0.50446514  0.39001316  0.90778725     0.20060
H1200       H  0.59290590  0.43332263  0.96445043     0.20060
C1201       C  0.76268573  0.71831854  0.36431914    -0.05770
C1202       C  0.76378310  0.73845936  0.38116919    -0.16900
C1203       C  0.73668513  0.72181507  0.39596253     0.11430
C1204       C  0.70802447  0.68349753  0.39440366    -0.05690
C1205       C  0.70702509  0.66305271  0.37771600    -0.16930
C1206       C  0.73424359  0.67984689  0.36282004     0.11460
S1207       S  0.73884905  0.75195081  0.41560713    -0.31900
S1208       S  0.73193371  0.65029987  0.34285820    -0.31900
H1209       H  0.77085208  0.66688191  0.34181482     0.29470
H1210       H  0.70011519  0.73679553  0.41584285     0.29460
H1211       H  0.78502324  0.76809838  0.38244155     0.20060
H1212       H  0.68534822  0.63355121  0.37648316     0.20060
C1213       C  0.75863737  0.70962510  0.16769213    -0.05770
C1214       C  0.77100031  0.70992008  0.14829285    -0.16900
C1215       C  0.74590465  0.68896377  0.13298142     0.11430
C1216       C  0.70706092  0.66751585  0.13685472    -0.05690
C1217       C  0.69483022  0.66576737  0.15644098    -0.16930
C1218       C  0.71989275  0.68683063  0.17174185     0.11460
S1219       S  0.76548564  0.69043649  0.10900354    -0.31900
S1220       S  0.70001950  0.68569612  0.19555709    -0.31900
H1221       H  0.72069904  0.72492871  0.19773727     0.29470
H1222       H  0.73932436  0.65248882  0.10456900     0.29460
H1223       H  0.80062938  0.72659691  0.14498278     0.20060
H1224       H  0.66516458  0.64971558  0.15967950     0.20060
C1225       C  0.70481531  0.93511609  0.13945436    -0.05770
C1226       C  0.74006613  0.94359890  0.13319055    -0.16900
C1227       C  0.76791688  0.95023470  0.14682554     0.11430
C1228       C  0.76044845  0.94749094  0.16747879    -0.05690
C1229       C  0.72575241  0.94066227  0.17375451    -0.16930
C1230       C  0.69821421  0.93496887  0.16007215     0.11460
S1231       S  0.81238965  0.96252744  0.13670322    -0.31900
S1232       S  0.65562110  0.92827081  0.16995870    -0.31900
H1233       H  0.65192071  0.94934542  0.15505991     0.29470
H1234       H  0.83339682  0.99156691  0.15048518     0.29460
H1235       H  0.74585811  0.94434332  0.11747143     0.20060
H1236       H  0.71974148  0.93925136  0.18947489     0.20060
C1237       C  0.74964504  0.93777105  0.36116877    -0.05770
C1238       C  0.74300907  0.96631116  0.36510645    -0.16900
C1239       C  0.71589818  0.96121193  0.37898314     0.11430
C1240       C  0.69484194  0.92680523  0.38923484    -0.05690
C1241       C  0.70113112  0.89818138  0.38494934    -0.16930
C1242       C  0.72790010  0.90312674  0.37109856     0.11460
S1243       S  0.70881455  0.99910670  0.38247877    -0.31900
S1244       S  0.73202411  0.86356533  0.36639061    -0.31900
H1245       H  0.73793831  0.86985421  0.34582926     0.29470
H1246       H  0.66984879  0.97590979  0.38483998     0.29460
H1247       H  0.75927403  0.99288199  0.35744788     0.20060
H1248       H  0.68508592  0.87153082  0.39258247     0.20060
C1249       C  0.02597132  0.21058705  0.36286425    -0.05770
C1250       C  0.01902898  0.23850080  0.35760688    -0.16900
C1251       C  0.02304629  0.26528344  0.37144678     0.11430
C1252       C  0.03447516  0.26449603  0.39102570    -0.05690
C1253       C  0.04125366  0.23672206  0.39631741    -0.16930
C1254       C  0.03743439  0.21012343  0.38261133     0.11460
S1255       S  0.01234494  0.29903846  0.36338576    -0.31900
S1256       S  0.05014517  0.17818853  0.39118518    -0.31900
H1257       H  0.01330124  0.14690645  0.38955977     0.29470
H1258       H  0.99944002  0.30272624  0.38193903     0.29460
H1259       H  0.01012718  0.23938166  0.34264546     0.20060
H1260       H  0.05092560  0.23648735  0.41119895     0.20060
C1261       C  0.02732221  0.21461806  0.16759449    -0.05770
C1262       C  0.02345504  0.24424501  0.17356480    -0.16900
C1263       C  0.02637282  0.27075280  0.15988863     0.11430
C1264       C  0.03325106  0.26783809  0.13964367    -0.05690
C1265       C  0.03661722  0.23805391  0.13365177    -0.16930
C1266       C  0.03478269  0.21225800  0.14730864     0.11460
S1267       S  0.02004924  0.30693156  0.16909578    -0.31900
S1268       S  0.04538815  0.17913795  0.13793906    -0.31900
H1269       H  0.07015638  0.18522389  0.15355851     0.29470
H1270       H  0.00284609  0.30914618  0.15173947     0.29460
H1271       H  0.01767932  0.24659963  0.18897268     0.20060
H1272       H  0.04309768  0.23614438  0.11830069     0.20060
C1273       C  0.25614451  0.20506899  0.16692585    -0.05770
C1274       C  0.28373340  0.24194332  0.17243308    -0.16900
C1275       C  0.30281534  0.27014829  0.15819043     0.11430
C1276       C  0.29476417  0.26144771  0.13774238    -0.05690
C1277       C  0.26875600  0.22405341  0.13228523    -0.16930
C1278       C  0.24989137  0.19592003  0.14646388     0.11460
S1279       S  0.33526088  0.31679387  0.16732124    -0.31900
S1280       S  0.21865143  0.14897022  0.13722328    -0.31900
H1281       H  0.22987422  0.13233742  0.15127851     0.29470
H1282       H  0.31691004  0.33201384  0.15773482     0.29460
H1283       H  0.28916824  0.24942183  0.18801341     0.20060
H1284       H  0.26278703  0.21646711  0.11673546     0.20060
C1285       C  0.25986220  0.21343683  0.36212910    -0.05770
C1286       C  0.26598731  0.20185513  0.38046725    -0.16900
C1287       C  0.28798158  0.22774345  0.39529836     0.11430
C1288       C  0.30357011  0.26650451  0.39213042    -0.05690
C1289       C  0.29874262  0.27809547  0.37342542    -0.16930
C1290       C  0.27689335  0.25221396  0.35858442     0.11460
S1291       S  0.29515861  0.20918123  0.41770837    -0.31900
S1292       S  0.26930898  0.27056795  0.33621427    -0.31900
H1293       H  0.23055209  0.24402492  0.33563656     0.29470
H1294       H  0.33321116  0.23776862  0.41937753     0.29460
H1295       H  0.25370566  0.17225238  0.38325028     0.20060
H1296       H  0.31020277  0.30754863  0.37065794     0.20060
C1297       C  0.25895409  0.95255634  0.36240435    -0.05770
C1298       C  0.25042503  0.95243843  0.38259240    -0.16900
C1299       C  0.26994905  0.94728531  0.39764808     0.11430
C1300       C  0.29850562  0.94098883  0.39265999    -0.05690
C1301       C  0.30850033  0.94315831  0.37257881    -0.16930
C1302       C  0.28908278  0.94855880  0.35748546     0.11460
S1303       S  0.25708877  0.94968026  0.42285569    -0.31900
S1304       S  0.30314270  0.94795508  0.33234533    -0.31900
H1305       H  0.26717734  0.91872935  0.32647608     0.29470
H1306       H  0.29422845  0.97084736  0.42976905     0.29460
H1307       H  0.22820137  0.95644546  0.38681310     0.20060
H1308       H  0.33045415  0.93869511  0.36842705     0.20060
C1309       C  0.26048396  0.95123876  0.16910840    -0.05770
C1310       C  0.24300209  0.93168232  0.15151725    -0.16900
C1311       C  0.26152577  0.92264280  0.13774666     0.11430
C1312       C  0.29922624  0.93443791  0.14105578    -0.05690
C1313       C  0.31702834  0.95432393  0.15852709    -0.16930
C1314       C  0.29831532  0.96324692  0.17242295     0.11460
S1315       S  0.23432094  0.89336538  0.11707357    -0.31900
S1316       S  0.32476514  0.99123643  0.19354764    -0.31900
H1317       H  0.30895583  0.01310252  0.19352509     0.29470
H1318       H  0.24883274  0.87035710  0.11792640     0.29460
H1319       H  0.21388494  0.92166306  0.14885202     0.20060
H1320       H  0.34597696  0.96366439  0.16117975     0.20060
C1321       C  0.03030239  0.66548565  0.14236357    -0.05770
C1322       C  0.00207655  0.67249230  0.13849181    -0.16900
C1323       C  0.99274387  0.69075444  0.15246159     0.11430
C1324       C  0.01247150  0.70307115  0.17067688    -0.05690
C1325       C  0.03943667  0.69459109  0.17488251    -0.16930
C1326       C  0.04902812  0.67674741  0.16092629     0.11460
S1327       S  0.95487638  0.69662526  0.14634819    -0.31900
S1328       S  0.08826656  0.67315733  0.16701747    -0.31900
H1329       H  0.10634543  0.68930721  0.14896376     0.29470
H1330       H  0.94154893  0.69194643  0.16593710     0.29460
H1331       H  0.98712208  0.66366609  0.12448086     0.20060
H1332       H  0.05508485  0.70422401  0.18867164     0.20060
C1333       C  0.01967166  0.70911898  0.36182456    -0.05770
C1334       C  0.05386095  0.72717058  0.37204949    -0.16900
C1335       C  0.06276251  0.70787232  0.38535702     0.11430
C1336       C  0.03635590  0.66962313  0.38935815    -0.05690
C1337       C  0.00231714  0.65115083  0.37890862    -0.16930
C1338       C  0.99356752  0.67053338  0.36531891     0.11460
S1339       S  0.10923139  0.73331493  0.39589171    -0.31900
S1340       S  0.94800807  0.64506489  0.35386588    -0.31900
H1341       H  0.94293043  0.67524098  0.35405739     0.29470
H1342       H  0.11400146  0.70293510  0.39530917     0.29460
H1343       H  0.07448915  0.75649044  0.36916233     0.20630
H1344       H  0.98188640  0.62182324  0.38187283     0.20060
loop_ 
_geom_bond_atom_site_label_1 
_geom_bond_atom_site_label_2 
_geom_bond_distance 
_geom_bond_site_symmetry_2 
_ccdc_geom_bond_type 
O1            C4   1.267       .  A
O1           Cd6   2.469       .  S
C2           O11   1.264       .  A
C2            O7   1.264       .  A
C2          C145   1.468       .  S
O3            C9   1.268       .  A
O3           Cd6   2.519       .  S
C4           O12   1.267       .  A
C4           C41   1.469       .  S
C5           O10   1.266   1_455  A
C5            O8   1.264       .  A
C5         C1333   1.482       .  S
Cd6          O13   2.417       .  S
Cd6          O12   2.467       .  S
Cd6          O11   2.473   1_455  S
Cd6           O7   2.479   1_455  S
Cd6          O10   2.510   1_455  S
Cd6           O8   2.453       .  S
C9           O13   1.261       .  A
C9           C22   1.466       .  S
O14          C17   1.265       .  A
O14         Cd19   2.476   1_655  S
C15          O24   1.264       .  A
C15          O20   1.265       .  A
C15          C30   1.468       .  S
O16          C22   1.267       .  A
O16         Cd19   2.514       .  S
C17          O25   1.266       .  A
C17         C132   1.469       .  S
C18          O23   1.265       .  A
C18          O21   1.265       .  A
C18        C1324   1.482       .  S
Cd19         O26   2.420       .  S
Cd19         O25   2.469   1_455  S
Cd19         O24   2.468       .  S
Cd19         O20   2.485       .  S
Cd19         O23   2.468       .  S
Cd19         O21   2.476       .  S
C22          O26   1.263       .  A
O27          C30   1.266       .  A
O27         Cd32   2.478       .  S
C28          O37   1.265       .  A
C28          O33   1.264   1_545  A
C28          C67   1.469       .  S
O29          C35   1.268       .  A
O29         Cd32   2.516       .  S
C30          O38   1.265       .  A
C31          O36   1.266       .  A
C31          O34   1.265       .  A
C31        C1309   1.487       .  S
Cd32         O39   2.419       .  S
Cd32         O38   2.467       .  S
Cd32         O37   2.475   1_565  S
Cd32         O33   2.476       .  S
Cd32         O36   2.497       .  S
Cd32         O34   2.457       .  S
C35          O39   1.262       .  A
C35          C48   1.466       .  S
O40          C43   1.265   1_565  A
O40         Cd45   2.484       .  S
C41          O50   1.265       .  A
C41          O46   1.266       .  A
O42          C48   1.268       .  A
O42         Cd45   2.513       .  S
C43          O51   1.264       .  A
C43          C56   1.470       .  S
C44          O49   1.265       .  A
C44          O47   1.265       .  A
C44        C1297   1.492       .  S
Cd45         O52   2.419       .  S
Cd45         O51   2.476   1_565  S
Cd45         O50   2.471       .  S
Cd45         O46   2.476       .  S
Cd45         O49   2.490       .  S
Cd45         O47   2.456       .  S
C48          O52   1.263       .  A
O53          C56   1.267       .  A
O53         Cd58   2.482       .  S
C54          O63   1.264       .  A
C54          O59   1.267       .  A
C54          C93   1.469       .  S
O55          C61   1.266       .  A
O55         Cd58   2.474       .  S
C56          O64   1.265       .  A
C57          O62   1.268       .  A
C57          O60   1.263       .  A
C57          C70   1.464       .  S
Cd58         O65   2.463       .  S
Cd58         O64   2.468       .  S
Cd58         O63   2.460       .  S
Cd58         O59   2.490       .  S
Cd58         O62   2.507       .  S
Cd58         O60   2.414       .  S
C61          O65   1.266       .  A
C61        C1285   1.483       .  S
O66          C69   1.268       .  A
O66         Cd71   2.483       .  S
C67          O76   1.264       .  A
C67          O72   1.267       .  A
O68          C74   1.268       .  A
O68         Cd71   2.486       .  S
C69          O77   1.265       .  A
C69          C80   1.470       .  S
C70          O75   1.269       .  A
C70          O73   1.263       .  A
Cd71         O78   2.428       .  S
Cd71         O77   2.461       .  S
Cd71         O76   2.465       .  S
Cd71         O72   2.480       .  S
Cd71         O75   2.506       .  S
Cd71         O73   2.411       .  S
C74          O78   1.263       .  A
C74        C1273   1.485       .  S
O79          C82   1.265       .  A
O79         Cd84   2.471   1_655  S
C80          O89   1.265       .  A
C80          O85   1.265       .  A
O81          C87   1.267       .  A
O81         Cd84   2.507       .  S
C82          O90   1.266       .  A
C82         C121   1.470       .  S
C83          O88   1.269       .  A
C83          O86   1.262       .  A
C83         C100   1.467       .  S
Cd84         O91   2.462       .  S
Cd84         O90   2.479   1_455  S
Cd84         O89   2.471       .  S
Cd84         O85   2.485       .  S
Cd84         O88   2.520       .  S
Cd84         O86   2.417       .  S
C87          O91   1.264       .  A
C87        C1261   1.493       .  S
O92          C95   1.265       .  A
O92         Cd97   2.476   1_655  S
C93         O102   1.265       .  A
C93          O98   1.266       .  A
O94         C100   1.268       .  A
O94         Cd97   2.516       .  S
C95         O103   1.265       .  A
C95         C106   1.469       .  S
C96         O101   1.267       .  A
C96          O99   1.262       .  A
C96        C1249   1.490       .  S
Cd97        O104   2.421       .  S
Cd97        O103   2.478   1_455  S
Cd97        O102   2.466       .  S
Cd97         O98   2.485       .  S
Cd97        O101   2.499       .  S
Cd97         O99   2.435       .  S
C100        O104   1.263       .  A
O105        C108   1.267       .  A
O105       Cd110   2.482       .  S
C106        O115   1.265       .  A
C106        O111   1.265   1_545  A
O107        C113   1.268       .  A
O107       Cd110   2.527       .  S
C108        O116   1.266       .  A
C108        C147   1.469       .  S
C109        O114   1.266       .  A
C109        O112   1.264       .  A
C109       C1237   1.484       .  S
Cd110       O117   2.416       .  S
Cd110       O116   2.461       .  S
Cd110       O115   2.473   1_565  S
Cd110       O111   2.476       .  S
Cd110       O114   2.509       .  S
Cd110       O112   2.468       .  S
C113        O117   1.261       .  A
C113        C126   1.468       .  S
O118        C121   1.265   1_565  A
O118       Cd123   2.477       .  S
C119        O128   1.265       .  A
C119        O124   1.266       .  A
C119        C134   1.470       .  S
O120        C126   1.268       .  A
O120       Cd123   2.522       .  S
C121        O129   1.265       .  A
C122        O127   1.267       .  A
C122        O125   1.263       .  A
C122       C1228   1.489       .  S
Cd123       O130   2.419       .  S
Cd123       O129   2.480   1_565  S
Cd123       O128   2.468       .  S
Cd123       O124   2.485       .  S
Cd123       O127   2.493       .  S
Cd123       O125   2.456       .  S
C126        O130   1.263       .  A
O131        C134   1.267       .  A
O131       Cd136   2.488       .  S
C132        O141   1.265       .  A
C132        O137   1.267       .  A
O133        C139   1.269       .  A
O133       Cd136   2.508       .  S
C134        O142   1.264       .  A
C135        O140   1.267       .  A
C135        O138   1.266       .  A
C135       C1213   1.486       .  S
Cd136       O143   2.411       .  S
Cd136       O142   2.460       .  S
Cd136       O141   2.464       .  S
Cd136       O137   2.481       .  S
Cd136       O140   2.478       .  S
Cd136       O138   2.456       .  S
C139        O143   1.263       .  A
C139        C148   1.465       .  S
O144        C147   1.268       .  A
O144       Cd149   2.489       .  S
C145        O154   1.265       .  A
C145        O150   1.267       .  A
O146        C152   1.268       .  A
O146       Cd149   2.483       .  S
C147        O155   1.264       .  A
C148        O153   1.269       .  A
C148        O151   1.263       .  A
Cd149       O156   2.426       .  S
Cd149       O155   2.456       .  S
Cd149       O154   2.463       .  S
Cd149       O150   2.477       .  S
Cd149       O153   2.505       .  S
Cd149       O151   2.410       .  S
C152        O156   1.265       .  A
C152       C1201   1.481       .  S
O157        C160   1.262       .  A
O157       Cd162   2.405       .  S
C158        O167   1.266       .  A
C158        O163   1.262       .  A
C158       C1165   1.471       .  S
O159        C165   1.267       .  A
O159       Cd162   2.479       .  S
C160        O168   1.268       .  A
C160       C1180   1.465       .  S
C161        O166   1.268       .  A
C161        O164   1.260       .  A
C161       C1189   1.486       .  S
Cd162       O169   2.443       .  S
Cd162       O168   2.471       .  S
Cd162       O167   2.457       .  S
Cd162       O163   2.419       .  S
Cd162       O166   2.491       .  S
Cd162       O164   2.426       .  S
C165        O169   1.262       .  A
C165       C1156   1.488       .  S
O170        C173   1.262       .  A
O170       Cd175   2.414       .  S
C171        O180   1.268       .  A
C171        O176   1.261       .  A
C171       C1141   1.472       .  S
O172        C178   1.265       .  A
O172       Cd175   2.498       .  S
C173        O181   1.267       .  A
C173       C1129   1.466       .  S
C174        O179   1.266       .  A
C174        O177   1.264       .  A
C174       C1192   1.479       .  S
Cd175       O182   2.445       .  S
Cd175       O181   2.464       .  S
Cd175       O180   2.473       .  S
Cd175       O176   2.421       .  S
Cd175       O179   2.475       .  S
Cd175       O177   2.444       .  S
C178        O182   1.261       .  A
C178       C1117   1.480       .  S
O183        C186   1.261       .  A
O183       Cd188   2.404       .  S
C184        O193   1.267       .  A
C184        O189   1.262       .  A
C184       C1177   1.472       .  S
O185        C191   1.267       .  A
O185       Cd188   2.468       .  S
C186        O194   1.265       .  A
C186       C1096   1.464       .  S
C187        O192   1.265       .  A
C187        O190   1.263       .  A
C187       C1276   1.488       .  S
Cd188       O195   2.446       .  S
Cd188       O194   2.473       .  S
Cd188       O193   2.454       .  S
Cd188       O189   2.425       .  S
Cd188       O192   2.485       .  S
Cd188       O190   2.438       .  S
C191        O195   1.264       .  A
C191       C1108   1.478       .  S
O196        C199   1.262       .  A
O196       Cd201   2.427       .  S
C197        O206   1.264       .  A
C197        O202   1.263       .  A
C197       C1081   1.477       .  S
O198        C204   1.267       .  A
O198       Cd201   2.473       .  S
C199        O207   1.267       .  A
C199       C1144   1.461       .  S
C200        O205   1.266       .  A
C200        O203   1.264       .  A
C200       C1216   1.485       .  S
Cd201       O208   2.450       .  S
Cd201       O207   2.462       .  S
Cd201       O206   2.455       .  S
Cd201       O202   2.431       .  S
Cd201       O205   2.474       .  S
Cd201       O203   2.467       .  S
C204        O208   1.263       .  A
C204       C1105   1.477       .  S
O209        C212   1.266       .  A
O209       Cd214   2.464       .  S
C210        O219   1.262       .  A
C210        O215   1.267       .  A
C210       C1093   1.471       .  S
O211        C217   1.264       .  A
O211       Cd214   2.466       .  S
C212        O220   1.266       .  A
C212       C1069   1.472       .  S
C213        O218   1.270       .  A
C213        O216   1.265       .  A
C213       C1057   1.482       .  S
Cd214       O221   2.493       .  S
Cd214       O220   2.456       .  S
Cd214       O219   2.398       .  S
Cd214       O215   2.476       .  S
Cd214       O218   2.452       .  S
Cd214       O216   2.445       .  S
C217        O221   1.265       .  A
C217       C1264   1.484       .  S
O222        C225   1.263       .  A
O222       Cd227   2.418       .  S
C223        O232   1.264       .  A
C223        O228   1.263       .  A
C223       C1045   1.478       .  S
O224        C230   1.263       .  A
O224       Cd227   2.458       .  S
C225        O233   1.269       .  A
C225       C1036   1.478       .  S
C226        O231   1.266       .  A
C226        O229   1.263       .  A
C226       C1072   1.474       .  S
Cd227       O234   2.493       .  S
Cd227       O233   2.483       .  S
Cd227       O232   2.489       .  S
Cd227       O228   2.438       .  S
Cd227       O231   2.486       .  S
Cd227       O229   2.442       .  S
C230        O234   1.265       .  A
C230       C1321   1.486       .  S
O235        C238   1.262       .  A
O235       Cd240   2.437       .  S
C236        O245   1.267   1_655  A
C236        O241   1.262       .  A
C236       C1060   1.475   1_655  S
O237        C243   1.266       .  A
O237       Cd240   2.480       .  S
C238        O246   1.266       .  A
C238       C1009   1.487       .  S
C239        O244   1.265       .  A
C239        O242   1.262       .  A
C239       C1021   1.469       .  S
Cd240       O247   2.474       .  S
Cd240       O246   2.488       .  S
Cd240       O245   2.491   1_655  S
Cd240       O241   2.418       .  S
Cd240       O244   2.491       .  S
Cd240       O242   2.447       .  S
C243        O247   1.264       .  A
C243        C997   1.492   1_655  S
O248        C251   1.264       .  A
O248       Cd253   2.470       .  S
C249        O258   1.263       .  A
C249        O254   1.265       .  A
C249       C1132   1.480       .  S
O250        C256   1.269   1_455  A
O250       Cd253   2.451   1_455  S
C251        O259   1.264       .  A
C251       C1024   1.475       .  S
C252        O257   1.264       .  A
C252        O255   1.263       .  A
C252        C988   1.484       .  S
Cd253       O260   2.442       .  S
Cd253       O259   2.463       .  S
Cd253       O258   2.416       .  S
Cd253       O254   2.469       .  S
Cd253       O257   2.477       .  S
Cd253       O255   2.477       .  S
C256        O260   1.266       .  A
C256       C1033   1.479       .  S
O261        C264   1.264       .  A
O261       Cd266   2.449       .  S
C262        O271   1.267   1_545  A
C262        O267   1.264       .  A
C262        C973   1.485       .  S
O263        C269   1.268       .  A
O263       Cd266   2.466   1_565  S
C264        O272   1.264       .  A
C264       C1168   1.470       .  S
C265        O270   1.264       .  A
C265        O268   1.265       .  A
C265        C949   1.486       .  S
Cd266       O273   2.440       .  S
Cd266       O272   2.428       .  S
Cd266       O271   2.487   1_545  S
Cd266       O267   2.429       .  S
Cd266       O270   2.463   1_545  S
Cd266       O268   2.492   1_545  S
C269        O273   1.264   1_565  A
C269        C961   1.483       .  S
O274        C277   1.266       .  A
O274       Cd279   2.444       .  S
C275        O284   1.266       .  A
C275        O280   1.264   1_565  A
C275        C937   1.481       .  S
O276        C282   1.267   1_565  A
O276       Cd279   2.493   1_565  S
C277        O285   1.267       .  A
C277       C1012   1.482       .  S
C278        O283   1.265       .  A
C278        O281   1.261   1_565  A
C278        C928   1.489       .  S
Cd279       O286   2.427       .  S
Cd279       O285   2.466       .  S
Cd279       O284   2.461   1_545  S
Cd279       O280   2.453       .  S
Cd279       O283   2.512   1_545  S
Cd279       O281   2.430       .  S
C282        O286   1.262       .  A
C282        C976   1.481       .  S
O287        C290   1.264       .  A
O287       Cd292   2.459       .  S
C288        O297   1.265       .  A
C288        O293   1.264       .  A
C288        C916   1.491       .  S
O289        C295   1.265       .  A
O289       Cd292   2.479       .  S
C290        O298   1.262       .  A
C290       C1084   1.472       .  S
C291        O296   1.269       .  A
C291        O294   1.265       .  A
C291        C940   1.486       .  S
Cd292       O299   2.470       .  S
Cd292       O298   2.443       .  S
Cd292       O297   2.493       .  S
Cd292       O293   2.439       .  S
Cd292       O296   2.461       .  S
Cd292       O294   2.442       .  S
C295        O299   1.263       .  A
C295       C1225   1.486       .  S
O300        C303   1.263       .  A
O300       Cd305   2.423       .  S
C301        O310   1.267       .  A
C301        O306   1.263       .  A
C301       C1048   1.480       .  S
O302        C308   1.268       .  A
O302       Cd305   2.496       .  S
C303        O311   1.267       .  A
C303        C964   1.482       .  S
C304        O309   1.265       .  A
C304        O307   1.262       .  A
C304       C1312   1.482       .  S
Cd305       O312   2.430       .  S
Cd305       O311   2.488       .  S
Cd305       O310   2.481       .  S
Cd305       O306   2.423       .  S
Cd305       O309   2.503       .  S
Cd305       O307   2.457       .  S
C308        O312   1.263       .  A
C308        C913   1.483       .  S
O313        C316   1.260       .  A
O313       Cd318   2.424       .  S
C314        O323   1.267       .  A
C314        O319   1.267       .  A
C314        C901   1.470       .  S
O315        C321   1.268       .  A
O315       Cd318   2.487   1_565  S
C316        O324   1.266   1_545  A
C316        C889   1.476       .  S
C317        O322   1.267       .  A
C317        O320   1.262   1_565  A
C317        C868   1.476       .  S
Cd318       O325   2.430       .  S
Cd318       O324   2.506   1_545  S
Cd318       O323   2.418       .  S
Cd318       O319   2.444       .  S
Cd318       O322   2.504   1_545  S
Cd318       O320   2.439       .  S
C321        O325   1.262   1_565  A
C321        C877   1.481       .  S
O326        C329   1.265       .  A
O326       Cd331   2.451       .  S
C327        O336   1.266       .  A
C327        O332   1.264       .  A
C327        C841   1.477       .  S
O328        C334   1.264       .  A
O328       Cd331   2.470   1_565  S
C329        O337   1.264       .  A
C329        C853   1.485       .  S
C330        O335   1.266   1_545  A
C330        O333   1.264       .  A
C330        C892   1.479       .  S
Cd331       O338   2.467   1_545  S
Cd331       O337   2.461       .  S
Cd331       O336   2.463   1_545  S
Cd331       O332   2.457   1_545  S
Cd331       O335   2.484   1_545  S
Cd331       O333   2.435       .  S
C334        O338   1.265       .  A
C334        C829   1.486       .  S
O339        C342   1.265       .  A
O339       Cd344   2.436       .  S
C340        O349   1.267       .  A
C340        O345   1.261       .  A
C340        C820   1.473       .  S
O341        C347   1.269       .  A
O341       Cd344   2.494       .  S
C342        O350   1.266       .  A
C342        C808   1.473       .  S
C343        O348   1.269       .  A
C343        O346   1.262       .  A
C343       C1240   1.485       .  S
Cd344       O351   2.431       .  S
Cd344       O350   2.433       .  S
Cd344       O349   2.508       .  S
Cd344       O345   2.424       .  S
Cd344       O348   2.526       .  S
Cd344       O346   2.435       .  S
C347        O351   1.262       .  A
C347        C844   1.480       .  S
O352        C355   1.264       .  A
O352       Cd357   2.426       .  S
C353        O362   1.266       .  A
C353        O358   1.262       .  A
C353        C880   1.481       .  S
O354        C360   1.266       .  A
O354       Cd357   2.497       .  S
C355        O363   1.267       .  A
C355        C793   1.480       .  S
C356        O361   1.267       .  A
C356        O359   1.262       .  A
C356       C1300   1.489       .  S
Cd357       O364   2.440       .  S
Cd357       O363   2.485       .  S
Cd357       O362   2.484       .  S
Cd357       O358   2.438       .  S
Cd357       O361   2.490       .  S
Cd357       O359   2.452       .  S
C360        O364   1.264       .  A
C360        C817   1.482       .  S
O365        C368   1.262       .  A
O365       Cd370   2.424       .  S
C366        O375   1.266       .  A
C366        O371   1.261       .  A
C366        C904   1.475       .  S
O367        C373   1.268       .  A
O367       Cd370   2.472       .  S
C368        O376   1.268       .  A
C368        C772   1.479       .  S
C369        O374   1.265       .  A
C369        O372   1.263       .  A
C369        C757   1.481       .  S
Cd370       O377   2.434       .  S
Cd370       O376   2.463       .  S
Cd370       O375   2.463       .  S
Cd370       O371   2.420       .  S
Cd370       O374   2.491       .  S
Cd370       O372   2.448       .  S
C373        O377   1.264       .  A
C373        C781   1.476       .  S
O378        C381   1.263       .  A
O378       Cd383   2.418       .  S
C379        O388   1.266       .  A
C379        O384   1.262       .  A
C379        C736   1.473       .  S
O380        C386   1.266       .  A
O380       Cd383   2.479       .  S
C381        O389   1.266       .  A
C381        C745   1.478       .  S
C382        O387   1.266       .  A
C382        O385   1.262       .  A
C382        C784   1.475       .  S
Cd383       O390   2.442       .  S
Cd383       O389   2.453       .  S
Cd383       O388   2.465       .  S
Cd383       O384   2.422       .  S
Cd383       O387   2.478       .  S
Cd383       O385   2.435       .  S
C386        O390   1.264       .  A
C386        C721   1.477       .  S
O391        C394   1.263       .  A
O391       Cd396   2.432       .  S
C392        O401   1.265       .  A
C392        O397   1.262       .  A
C392        C700   1.467       .  S
O393        C399   1.267       .  A
O393       Cd396   2.475       .  S
C394        O402   1.267       .  A
C394        C769   1.475       .  S
C395        O400   1.267       .  A
C395        O398   1.264       .  A
C395       C1288   1.489       .  S
Cd396       O403   2.442       .  S
Cd396       O402   2.458       .  S
Cd396       O401   2.467       .  S
Cd396       O397   2.419       .  S
Cd396       O400   2.468       .  S
Cd396       O398   2.459       .  S
C399        O403   1.264       .  A
C399        C709   1.478       .  S
O404        C407   1.262       .  A
O404       Cd409   2.423       .  S
C405        O414   1.267       .  A
C405        O410   1.263       .  A
C405        C748   1.470       .  S
O406        C412   1.267       .  A
O406       Cd409   2.481       .  S
C407        O415   1.266       .  A
C407        C805   1.473       .  S
C408        O413   1.266       .  A
C408        O411   1.263       .  A
C408       C1204   1.476       .  S
Cd409       O416   2.433       .  S
Cd409       O415   2.457       .  S
Cd409       O414   2.460       .  S
Cd409       O410   2.412       .  S
Cd409       O413   2.480       .  S
Cd409       O411   2.442       .  S
C412        O416   1.263       .  A
C412        C712   1.476       .  S
O417        C420   1.264       .  A
O417       Cd422   2.437       .  S
C418        O427   1.262       .  A
C418        O423   1.267       .  A
C418        C697   1.469       .  S
O419        C425   1.267       .  A
O419       Cd422   2.468       .  S
C420        O428   1.267       .  A
C420        C688   1.477       .  S
C421        O426   1.265       .  A
C421        O424   1.266       .  A
C421       C1252   1.475       .  S
Cd422       O429   2.438       .  S
Cd422       O428   2.485       .  S
Cd422       O427   2.407       .  S
Cd422       O423   2.473       .  S
Cd422       O426   2.440       .  S
Cd422       O424   2.481       .  S
C425        O429   1.262       .  A
C425        C673   1.474       .  S
O430        C433   1.261       .  A
O430       Cd435   2.424       .  S
C431        O440   1.268       .  A
C431        O436   1.263       .  A
C431        C796   1.478       .  S
O432        C438   1.267       .  A
O432       Cd435   2.497       .  S
C433        O441   1.267       .  A
C433        C661   1.483       .  S
C434        O439   1.266       .  A
C434        O437   1.261       .  A
C434       C1336   1.480       .  S
Cd435       O442   2.437       .  S
Cd435       O441   2.505       .  S
Cd435       O440   2.482       .  S
Cd435       O436   2.416       .  S
Cd435       O439   2.517       .  S
Cd435       O437   2.439       .  S
C438        O442   1.263       .  A
C438        C685   1.482       .  S
O443        C446   1.265       .  A
O443       Cd448   2.438       .  S
C444        O453   1.266   1_655  A
C444        O449   1.263       .  A
C444        C676   1.471   1_655  S
O445        C451   1.265       .  A
O445       Cd448   2.474       .  S
C446        O454   1.267       .  A
C446        C856   1.477       .  S
C447        O452   1.266       .  A
C447        O450   1.263       .  A
C447        C640   1.479       .  S
Cd448       O455   2.450       .  S
Cd448       O454   2.458       .  S
Cd448       O453   2.481   1_655  S
Cd448       O449   2.422       .  S
Cd448       O452   2.488       .  S
Cd448       O450   2.444       .  S
C451        O455   1.263       .  A
C451        C652   1.474       .  S
O456        C459   1.264       .  A
O456       Cd461   2.467       .  S
C457        O466   1.264       .  A
C457        O462   1.269       .  A
C457        C733   1.476       .  S
O458        C464   1.267   1_455  A
O458       Cd461   2.520   1_455  S
C459        O467   1.264       .  A
C459        C649   1.478       .  S
C460        O465   1.269   1_655  A
C460        O463   1.265       .  A
C460        C664   1.478       .  S
Cd461       O468   2.440       .  S
Cd461       O467   2.465       .  S
Cd461       O466   2.411       .  S
Cd461       O462   2.453       .  S
Cd461       O465   2.463   1_655  S
Cd461       O463   2.442       .  S
C464        O468   1.260       .  A
C464        C625   1.475       .  S
O469        C472   1.265       .  A
O469       Cd474   2.484   1_655  S
C470        O479   1.265       .  A
C470        O475   1.265       .  A
C470        C498   1.467       .  S
O471        C477   1.268       .  A
O471       Cd474   2.520       .  S
C472        O480   1.265       .  A
C472        C600   1.468       .  S
C473        O478   1.267       .  A
C473        O476   1.264   1_455  A
C473        C628   1.485   1_455  S
Cd474       O481   2.419       .  S
Cd474       O480   2.463   1_455  S
Cd474       O479   2.470       .  S
Cd474       O475   2.468       .  S
Cd474       O478   2.500       .  S
Cd474       O476   2.458   1_455  S
C477        O481   1.262       .  A
C477        C490   1.467       .  S
O482        C485   1.265       .  A
O482       Cd487   2.474       .  S
C483        O492   1.265       .  A
C483        O488   1.266       .  A
C483        C615   1.470       .  S
O484        C490   1.268       .  A
O484       Cd487   2.518       .  S
C485        O493   1.265       .  A
C485        C511   1.469       .  S
C486        O491   1.267       .  A
C486        O489   1.264       .  A
C486        C985   1.488       .  S
Cd487       O494   2.421       .  S
Cd487       O493   2.477       .  S
Cd487       O492   2.469   1_455  S
Cd487       O488   2.483   1_455  S
Cd487       O491   2.492       .  S
Cd487       O489   2.455       .  S
C490        O494   1.262       .  A
O495        C498   1.265       .  A
O495       Cd500   2.473       .  S
C496        O505   1.266       .  A
C496        O501   1.267   1_545  A
C496        C522   1.469       .  S
O497        C503   1.268       .  A
O497       Cd500   2.523       .  S
C498        O506   1.264       .  A
C499        O504   1.266       .  A
C499        O502   1.264       .  A
C499        C865   1.480       .  S
Cd500       O507   2.418       .  S
Cd500       O506   2.472       .  S
Cd500       O505   2.460   1_565  S
Cd500       O501   2.480       .  S
Cd500       O504   2.499       .  S
Cd500       O502   2.448       .  S
C503        O507   1.262       .  A
C503        C512   1.467       .  S
O508        C511   1.265       .  A
O508       Cd513   2.467       .  S
C509        O518   1.264       .  A
C509        O514   1.264   1_545  A
C509        C535   1.469       .  S
O510        C516   1.267       .  A
O510       Cd513   2.502       .  S
C511        O519   1.266       .  A
C512        O517   1.268       .  A
C512        O515   1.262       .  A
Cd513       O520   2.461       .  S
Cd513       O519   2.477       .  S
Cd513       O518   2.469   1_565  S
Cd513       O514   2.486       .  S
Cd513       O517   2.523       .  S
Cd513       O515   2.417       .  S
C516        O520   1.264       .  A
C516        C952   1.491       .  S
O521        C524   1.267       .  A
O521       Cd526   2.473       .  S
C522        O531   1.264       .  A
C522        O527   1.267       .  A
O523        C529   1.268       .  A
O523       Cd526   2.488       .  S
C524        O532   1.265       .  A
C524        C550   1.468       .  S
C525        O530   1.269       .  A
C525        O528   1.263       .  A
C525        C542   1.464       .  S
Cd526       O533   2.433       .  S
Cd526       O532   2.465       .  S
Cd526       O531   2.456       .  S
Cd526       O527   2.486       .  S
Cd526       O530   2.507       .  S
Cd526       O528   2.403       .  S
C529        O533   1.264       .  A
C529        C760   1.481       .  S
O534        C537   1.267       .  A
O534       Cd539   2.474       .  S
C535        O544   1.264       .  A
C535        O540   1.268       .  A
O536        C542   1.269       .  A
O536       Cd539   2.506       .  S
C537        O545   1.265       .  A
C537        C561   1.468       .  S
C538        O543   1.267       .  A
C538        O541   1.265       .  A
C538       C1153   1.485       .  S
Cd539       O546   2.404       .  S
Cd539       O545   2.462       .  S
Cd539       O544   2.456       .  S
Cd539       O540   2.488       .  S
Cd539       O543   2.479       .  S
Cd539       O541   2.430       .  S
C542        O546   1.263       .  A
O547        C550   1.264       .  A
O547       Cd552   2.474       .  S
C548        O557   1.266       .  A
C548        O553   1.266       .  A
C548        C576   1.468       .  S
O549        C555   1.268       .  A
O549       Cd552   2.517       .  S
C550        O558   1.265       .  A
C551        O556   1.267       .  A
C551        O554   1.264       .  A
C551        C637   1.482       .  S
Cd552       O559   2.419       .  S
Cd552       O558   2.475       .  S
Cd552       O557   2.471   1_455  S
Cd552       O553   2.469   1_455  S
Cd552       O556   2.495       .  S
Cd552       O554   2.443       .  S
C555        O559   1.262       .  A
C555        C568   1.467       .  S
O560        C563   1.265       .  A
O560       Cd565   2.479   1_655  S
C561        O570   1.265       .  A
C561        O566   1.264       .  A
O562        C568   1.268       .  A
O562       Cd565   2.518       .  S
C563        O571   1.265       .  A
C563        C587   1.468       .  S
C564        O569   1.265       .  A
C564        O567   1.265       .  A
C564       C1000   1.491       .  S
Cd565       O572   2.421       .  S
Cd565       O571   2.462   1_455  S
Cd565       O570   2.474       .  S
Cd565       O566   2.475       .  S
Cd565       O569   2.487       .  S
Cd565       O567   2.470       .  S
C568        O572   1.262       .  A
O573        C576   1.266   1_565  A
O573       Cd578   2.470       .  S
C574        O583   1.265       .  A
C574        O579   1.264       .  A
C574        C602   1.468       .  S
O575        C581   1.267       .  A
O575       Cd578   2.510       .  S
C576        O584   1.266       .  A
C577        O582   1.266       .  A
C577        O580   1.264       .  A
C577        C832   1.487       .  S
Cd578       O585   2.415       .  S
Cd578       O584   2.472   1_565  S
Cd578       O583   2.471       .  S
Cd578       O579   2.475       .  S
Cd578       O582   2.482       .  S
Cd578       O580   2.465       .  S
C581        O585   1.262       .  A
C581        C594   1.464       .  S
O586        C589   1.266       .  A
O586       Cd591   2.472       .  S
C587        O596   1.263       .  A
C587        O592   1.266   1_545  A
O588        C594   1.268       .  A
O588       Cd591   2.508       .  S
C589        O597   1.266       .  A
C589        C613   1.468       .  S
C590        O595   1.264       .  A
C590        O593   1.265       .  A
C590        C925   1.476       .  S
Cd591       O598   2.415       .  S
Cd591       O597   2.466       .  S
Cd591       O596   2.458   1_565  S
Cd591       O592   2.486       .  S
Cd591       O595   2.458       .  S
Cd591       O593   2.475       .  S
C594        O598   1.262       .  A
O599        C602   1.267       .  A
O599       Cd604   2.472       .  S
C600        O609   1.264       .  A
C600        O605   1.268       .  A
O601        C607   1.269       .  A
O601       Cd604   2.504       .  S
C602        O610   1.266       .  A
C603        O608   1.268       .  A
C603        O606   1.264       .  A
C603        C724   1.482       .  S
Cd604       O611   2.400       .  S
Cd604       O610   2.461       .  S
Cd604       O609   2.452       .  S
Cd604       O605   2.488       .  S
Cd604       O608   2.481       .  S
Cd604       O606   2.425       .  S
C607        O611   1.263       .  A
C607        C620   1.463       .  S
O612        C615   1.267       .  A
O612       Cd617   2.485       .  S
C613        O622   1.265       .  A
C613        O618   1.266       .  A
O614        C620   1.269       .  A
O614       Cd617   2.506       .  S
C615        O623   1.265       .  A
C616        O621   1.267       .  A
C616        O619   1.265       .  A
C616       C1120   1.482       .  S
Cd617       O624   2.401       .  S
Cd617       O623   2.461       .  S
Cd617       O622   2.464       .  S
Cd617       O618   2.477       .  S
Cd617       O621   2.489       .  S
Cd617       O619   2.428       .  S
C620        O624   1.263       .  A
C625        C626   1.401       .  A
C625        C630   1.411   1_655  A
C626        C627   1.397       .  A
C626        H635   1.083       .  S
C627        C628   1.415       .  A
C627        S631   1.804       .  S
C628        C629   1.408   1_655  A
C629        C630   1.407       .  A
C629        H636   1.083       .  S
C630        S632   1.803       .  S
S631        H634   1.407       .  S
S632        H633   1.406       .  S
C637        C638   1.403   1_455  A
C637        C642   1.415       .  A
C638        C639   1.395       .  A
C638        H647   1.085       .  S
C639        C640   1.414       .  A
C639        S643   1.805       .  S
C640        C641   1.405   1_655  A
C641        C642   1.404       .  A
C641        H648   1.084       .  S
C642        S644   1.802       .  S
S643        H646   1.408       .  S
S644        H645   1.407       .  S
C649        C650   1.405       .  A
C649        C654   1.414       .  A
C650        C651   1.399       .  A
C650        H659   1.084   1_655  S
C651        C652   1.412       .  A
C651        S655   1.801   1_655  S
C652        C653   1.403       .  A
C653        C654   1.399       .  A
C653        H660   1.084       .  S
C654        S656   1.802       .  S
S655        H658   1.406       .  S
S656        H657   1.407       .  S
C661        C662   1.407       .  A
C661        C666   1.414   1_455  A
C662        C663   1.396       .  A
C662        H671   1.084       .  S
C663        C664   1.411   1_455  A
C663        S667   1.803       .  S
C664        C665   1.406       .  A
C665        C666   1.401       .  A
C665        H672   1.084       .  S
C666        S668   1.801       .  S
S667        H670   1.407       .  S
S668        H669   1.407       .  S
C673        C674   1.401   1_455  A
C673        C678   1.416       .  A
C674        C675   1.395       .  A
C674        H683   1.084       .  S
C675        C676   1.413   1_655  A
C675        S679   1.804       .  S
C676        C677   1.402       .  A
C677        C678   1.400       .  A
C677        H684   1.084       .  S
C678        S680   1.804       .  S
S679        H682   1.408       .  S
S680        H681   1.407       .  S
C685        C686   1.404       .  A
C685        C690   1.415       .  A
C686        C687   1.396       .  A
C686        H695   1.084       .  S
C687        C688   1.413       .  A
C687        S691   1.805       .  S
C688        C689   1.404       .  A
C689        C690   1.404       .  A
C689        H696   1.084       .  S
C690        S692   1.801       .  S
S691        H694   1.408       .  S
S692        H693   1.407       .  S
C697        C698   1.402       .  A
C697        C702   1.412       .  A
C698        C699   1.392       .  A
C698        H707   1.085       .  S
C699        C700   1.411       .  A
C699        S703   1.805       .  S
C700        C701   1.403       .  A
C701        C702   1.400       .  A
C701        H708   1.084       .  S
C702        S704   1.802       .  S
S703        H706   1.407       .  S
S704        H705   1.407       .  S
C709        C710   1.404       .  A
C709        C714   1.413       .  A
C710        C711   1.397       .  A
C710        H719   1.084       .  S
C711        C712   1.414       .  A
C711        S715   1.805       .  S
C712        C713   1.403       .  A
C713        C714   1.401       .  A
C713        H720   1.083       .  S
C714        S716   1.802       .  S
S715        H718   1.407       .  S
S716        H717   1.407       .  S
C721        C722   1.402       .  A
C721        C726   1.413       .  A
C722        C723   1.395       .  A
C722        H731   1.084       .  S
C723        C724   1.417       .  A
C723        S727   1.804       .  S
C724        C725   1.406       .  A
C725        C726   1.403       .  A
C725        H732   1.083       .  S
C726        S728   1.802       .  S
S727        H730   1.408       .  S
S728        H729   1.407       .  S
C733        C734   1.405       .  A
C733        C738   1.417       .  A
C734        C735   1.399       .  A
C734        H743   1.084       .  S
C735        C736   1.413       .  A
C735        S739   1.802       .  S
C736        C737   1.401       .  A
C737        C738   1.393       .  A
C737        H744   1.084       .  S
C738        S740   1.804       .  S
S739        H742   1.407       .  S
S740        H741   1.406       .  S
C745        C746   1.408       .  A
C745        C750   1.414       .  A
C746        C747   1.396       .  A
C746        H755   1.084       .  S
C747        C748   1.409       .  A
C747        S751   1.803       .  S
C748        C749   1.403       .  A
C749        C750   1.394       .  A
C749        H756   1.084       .  S
C750        S752   1.801       .  S
S751        H754   1.407       .  S
S752        H753   1.408       .  S
C757        C758   1.403       .  A
C757        C762   1.414       .  A
C758        C759   1.396       .  A
C758        H767   1.084       .  S
C759        C760   1.415       .  A
C759        S763   1.804       .  S
C760        C761   1.406       .  A
C761        C762   1.404       .  A
C761        H768   1.083       .  S
C762        S764   1.802       .  S
S763        H766   1.408       .  S
S764        H765   1.407       .  S
C769        C770   1.401       .  A
C769        C774   1.415       .  A
C770        C771   1.396       .  A
C770        H779   1.084       .  S
C771        C772   1.418       .  A
C771        S775   1.803       .  S
C772        C773   1.403       .  A
C773        C774   1.397       .  A
C773        H780   1.083       .  S
C774        S776   1.803       .  S
S775        H778   1.408       .  S
S776        H777   1.408       .  S
C781        C782   1.403       .  A
C781        C786   1.413       .  A
C782        C783   1.396       .  A
C782        H791   1.084       .  S
C783        C784   1.414       .  A
C783        S787   1.805       .  S
C784        C785   1.403       .  A
C785        C786   1.401       .  A
C785        H792   1.083       .  S
C786        S788   1.802       .  S
S787        H790   1.408       .  S
S788        H789   1.407       .  S
C793        C794   1.404       .  A
C793        C798   1.415       .  A
C794        C795   1.395       .  A
C794        H803   1.084       .  S
C795        C796   1.414       .  A
C795        S799   1.804       .  S
C796        C797   1.404       .  A
C797        C798   1.401       .  A
C797        H804   1.083       .  S
C798        S800   1.800       .  S
S799        H802   1.408       .  S
S800        H801   1.407       .  S
C805        C806   1.402       .  A
C805        C810   1.414       .  A
C806        C807   1.396       .  A
C806        H815   1.083       .  S
C807        C808   1.414       .  A
C807        S811   1.800       .  S
C808        C809   1.403       .  A
C809        C810   1.395       .  A
C809        H816   1.084       .  S
C810        S812   1.804       .  S
S811        H814   1.407       .  S
S812        H813   1.408       .  S
C817        C818   1.404       .  A
C817        C822   1.417       .  A
C818        C819   1.394       .  A
C818        H827   1.084       .  S
C819        C820   1.410       .  A
C819        S823   1.802       .  S
C820        C821   1.402       .  A
C821        C822   1.406       .  A
C821        H828   1.083       .  S
C822        S824   1.801       .  S
S823        H826   1.406       .  S
S824        H825   1.407       .  S
C829        C830   1.405       .  A
C829        C834   1.417       .  A
C830        C831   1.400       .  A
C830        H839   1.083       .  S
C831        C832   1.416       .  A
C831        S835   1.802       .  S
C832        C833   1.405       .  A
C833        C834   1.401       .  A
C833        H840   1.083       .  S
C834        S836   1.802       .  S
S835        H838   1.408       .  S
S836        H837   1.408   1_565  S
C841        C842   1.405       .  A
C841        C846   1.414       .  A
C842        C843   1.401       .  A
C842        H851   1.084       .  S
C843        C844   1.413       .  A
C843        S847   1.802       .  S
C844        C845   1.404       .  A
C845        C846   1.397       .  A
C845        H852   1.084       .  S
C846        S848   1.804       .  S
S847        H850   1.407       .  S
S848        H849   1.408       .  S
C853        C854   1.406       .  A
C853        C858   1.418       .  A
C854        C855   1.397       .  A
C854        H863   1.084       .  S
C855        C856   1.412       .  A
C855        S859   1.804       .  S
C856        C857   1.403       .  A
C857        C858   1.399       .  A
C857        H864   1.084       .  S
C858        S860   1.800       .  S
S859        H862   1.408       .  S
S860        H861   1.408       .  S
C865        C866   1.403       .  A
C865        C870   1.415       .  A
C866        C867   1.400   1_565  A
C866        H875   1.083   1_565  S
C867        C868   1.412   1_545  A
C867        S871   1.810       .  S
C868        C869   1.403       .  A
C869        C870   1.404       .  A
C869        H876   1.084       .  S
C870        S872   1.802       .  S
S871        H874   1.407       .  S
S872        H873   1.407       .  S
C877        C878   1.406       .  A
C877        C882   1.413       .  A
C878        C879   1.397       .  A
C878        H887   1.084   1_565  S
C879        C880   1.413       .  A
C879        S883   1.802   1_565  S
C880        C881   1.407       .  A
C881        C882   1.399       .  A
C881        H888   1.084       .  S
C882        S884   1.802       .  S
S883        H886   1.408   1_545  S
S884        H885   1.407       .  S
C889        C890   1.404   1_545  A
C889        C894   1.414       .  A
C890        C891   1.404       .  A
C890        H899   1.084       .  S
C891        C892   1.415   1_565  A
C891        S895   1.801       .  S
C892        C893   1.402       .  A
C893        C894   1.394       .  A
C893        H900   1.084       .  S
C894        S896   1.805       .  S
S895        H898   1.407       .  S
S896        H897   1.408       .  S
C901        C902   1.401       .  A
C901        C906   1.412       .  A
C902        C903   1.394       .  A
C902        H911   1.084       .  S
C903        C904   1.414       .  A
C903        S907   1.804       .  S
C904        C905   1.404       .  A
C905        C906   1.401       .  A
C905        H912   1.082       .  S
C906        S908   1.808       .  S
S907        H910   1.408       .  S
S908        H909   1.407       .  S
C913        C914   1.405       .  A
C913        C918   1.414       .  A
C914        C915   1.404       .  A
C914        H923   1.084       .  S
C915        C916   1.419       .  A
C915        S919   1.800       .  S
C916        C917   1.406       .  A
C917        C918   1.396       .  A
C917        H924   1.084       .  S
C918        S920   1.804       .  S
S919        H922   1.408       .  S
S920        H921   1.408       .  S
C925        C926   1.403       .  A
C925        C930   1.411       .  A
C926        C927   1.404       .  A
C926        H935   1.084       .  S
C927        C928   1.419       .  A
C927        S931   1.800       .  S
C928        C929   1.407       .  A
C929        C930   1.395       .  A
C929        H936   1.084   1_565  S
C930        S932   1.804   1_565  S
S931        H934   1.407       .  S
S932        H933   1.407       .  S
C937        C938   1.403       .  A
C937        C942   1.416   1_556  A
C938        C939   1.399   1_556  A
C938        H947   1.084       .  S
C939        C940   1.418       .  A
C939        S943   1.801       .  S
C940        C941   1.404       .  A
C941        C942   1.398       .  A
C941        H948   1.083       .  S
C942        S944   1.802   1_565  S
S943        H946   1.406       .  S
S944        H945   1.408   1_554  S
C949        C950   1.404       .  A
C949        C954   1.415       .  A
C950        C951   1.399       .  A
C950        H959   1.084       .  S
C951        C952   1.417       .  A
C951        S955   1.803       .  S
C952        C953   1.408       .  A
C953        C954   1.405       .  A
C953        H960   1.083       .  S
C954        S956   1.802       .  S
S955        H958   1.408   1_565  S
S956        H957   1.407       .  S
C961        C962   1.408   1_556  A
C961        C966   1.413   1_556  A
C962        C963   1.400       .  A
C962        H971   1.084   1_565  S
C963        C964   1.413       .  A
C963        S967   1.802   1_565  S
C964        C965   1.406       .  A
C965        C966   1.396       .  A
C965        H972   1.084       .  S
C966        S968   1.802   1_554  S
S967        H970   1.407   1_545  S
S968        H969   1.408       .  S
C973        C974   1.405       .  A
C973        C978   1.416   1_545  A
C974        C975   1.395       .  A
C974        H983   1.084       .  S
C975        C976   1.414       .  A
C975        S979   1.804       .  S
C976        C977   1.405   1_545  A
C977        C978   1.403       .  A
C977        H984   1.084       .  S
C978        S980   1.801       .  S
S979        H982   1.408       .  S
S980        H981   1.407       .  S
C985        C986   1.407   1_455  A
C985        C990   1.417       .  A
C986        C987   1.403       .  A
C986        H995   1.083       .  S
C987        C988   1.415       .  A
C987        S991   1.802       .  S
C988        C989   1.404   1_655  A
C989        C990   1.399       .  A
C989        H996   1.083       .  S
C990        S992   1.803       .  S
S991        H994   1.407   1_655  S
S992        H993   1.408       .  S
C997        C998   1.406   1_455  A
C997       C1002   1.417       .  A
C998        C999   1.402       .  A
C998       H1007   1.084       .  S
C999       C1000   1.417   1_655  A
C999       S1003   1.801       .  S
C1000      C1001   1.406       .  A
C1001      C1002   1.401       .  A
C1001      H1008   1.084       .  S
C1002      S1004   1.802       .  S
S1003      H1006   1.408       .  S
S1004      H1005   1.408       .  S
C1009      C1010   1.407       .  A
C1009      C1014   1.415       .  A
C1010      C1011   1.401       .  A
C1010      H1019   1.082       .  S
C1011      C1012   1.413       .  A
C1011      S1015   1.809       .  S
C1012      C1013   1.405       .  A
C1013      C1014   1.400       .  A
C1013      H1020   1.083       .  S
C1014      S1016   1.801       .  S
S1015      H1018   1.407       .  S
S1016      H1017   1.408       .  S
C1021      C1022   1.402       .  A
C1021      C1026   1.411       .  A
C1022      C1023   1.402       .  A
C1022      H1031   1.084       .  S
C1023      C1024   1.414       .  A
C1023      S1027   1.803       .  S
C1024      C1025   1.403       .  A
C1025      C1026   1.397       .  A
C1025      H1032   1.084       .  S
C1026      S1028   1.805       .  S
S1027      H1030   1.407       .  S
S1028      H1029   1.405   1_655  S
C1033      C1034   1.401   1_656  A
C1033      C1038   1.417   1_556  A
C1034      C1035   1.395       .  A
C1034      H1043   1.084   1_554  S
C1035      C1036   1.416       .  A
C1035      S1039   1.804       .  S
C1036      C1037   1.403   1_455  A
C1037      C1038   1.401       .  A
C1037      H1044   1.084       .  S
C1038      S1040   1.803       .  S
S1039      H1042   1.408       .  S
S1040      H1041   1.407   1_554  S
C1045      C1046   1.403       .  A
C1045      C1050   1.415       .  A
C1046      C1047   1.396       .  A
C1046      H1055   1.084       .  S
C1047      C1048   1.414       .  A
C1047      S1051   1.804       .  S
C1048      C1049   1.404       .  A
C1049      C1050   1.400       .  A
C1049      H1056   1.083       .  S
C1050      S1052   1.800       .  S
S1051      H1054   1.408       .  S
S1052      H1053   1.402       .  S
C1057      C1058   1.402   1_455  A
C1057      C1062   1.419       .  A
C1058      C1059   1.395       .  A
C1058      H1067   1.084       .  S
C1059      C1060   1.414   1_654  A
C1059      S1063   1.805       .  S
C1060      C1061   1.402       .  A
C1061      C1062   1.402   1_556  A
C1061      H1068   1.084       .  S
C1062      S1064   1.802       .  S
S1063      H1066   1.408   1_554  S
S1064      H1065   1.408       .  S
C1069      C1070   1.403       .  A
C1069      C1074   1.413       .  A
C1070      C1071   1.402       .  A
C1070      H1079   1.083       .  S
C1071      C1072   1.413       .  A
C1071      S1075   1.802       .  S
C1072      C1073   1.402       .  A
C1073      C1074   1.397       .  A
C1073      H1080   1.084       .  S
C1074      S1076   1.805       .  S
S1075      H1078   1.407       .  S
S1076      H1077   1.407       .  S
C1081      C1082   1.405       .  A
C1081      C1086   1.415       .  A
C1082      C1083   1.395       .  A
C1082      H1091   1.084       .  S
C1083      C1084   1.410       .  A
C1083      S1087   1.798       .  S
C1084      C1085   1.402       .  A
C1085      C1086   1.397       .  A
C1085      H1092   1.083       .  S
C1086      S1088   1.800       .  S
S1087      H1090   1.407       .  S
S1088      H1089   1.407       .  S
C1093      C1094   1.403       .  A
C1093      C1098   1.413       .  A
C1094      C1095   1.389       .  A
C1094      H1103   1.085       .  S
C1095      C1096   1.410       .  A
C1095      S1099   1.806       .  S
C1096      C1097   1.403       .  A
C1097      C1098   1.401       .  A
C1097      H1104   1.085       .  S
C1098      S1100   1.802       .  S
S1099      H1102   1.407       .  S
S1100      H1101   1.407       .  S
C1105      C1106   1.403       .  A
C1105      C1110   1.412       .  A
C1106      C1107   1.398       .  A
C1106      H1115   1.084       .  S
C1107      C1108   1.415       .  A
C1107      S1111   1.804       .  S
C1108      C1109   1.404       .  A
C1109      C1110   1.400       .  A
C1109      H1116   1.083       .  S
C1110      S1112   1.802       .  S
S1111      H1114   1.408       .  S
S1112      H1113   1.407       .  S
C1117      C1118   1.405       .  A
C1117      C1122   1.414       .  A
C1118      C1119   1.404       .  A
C1118      H1127   1.084       .  S
C1119      C1120   1.416       .  A
C1119      S1123   1.801       .  S
C1120      C1121   1.402       .  A
C1121      C1122   1.394       .  A
C1121      H1128   1.085       .  S
C1122      S1124   1.799       .  S
S1123      H1126   1.407       .  S
S1124      H1125   1.407       .  S
C1129      C1130   1.401       .  A
C1129      C1134   1.412       .  A
C1130      C1131   1.400       .  A
C1130      H1139   1.084       .  S
C1131      C1132   1.416       .  A
C1131      S1135   1.801       .  S
C1132      C1133   1.405       .  A
C1133      C1134   1.391       .  A
C1133      H1140   1.084       .  S
C1134      S1136   1.806       .  S
S1135      H1138   1.408       .  S
S1136      H1137   1.404       .  S
C1141      C1142   1.402   1_556  A
C1141      C1146   1.416   1_556  A
C1142      C1143   1.396       .  A
C1142      H1151   1.084   1_554  S
C1143      C1144   1.410       .  A
C1143      S1147   1.805       .  S
C1144      C1145   1.399       .  A
C1145      C1146   1.398       .  A
C1145      H1152   1.084       .  S
C1146      S1148   1.804   1_554  S
S1147      H1150   1.404       .  S
S1148      H1149   1.407       .  S
C1153      C1154   1.404       .  A
C1153      C1158   1.415       .  A
C1154      C1155   1.396       .  A
C1154      H1163   1.085       .  S
C1155      C1156   1.418       .  A
C1155      S1159   1.802       .  S
C1156      C1157   1.407       .  A
C1157      C1158   1.401       .  A
C1157      H1164   1.084       .  S
C1158      S1160   1.801       .  S
S1159      H1162   1.408       .  S
S1160      H1161   1.407       .  S
C1165      C1166   1.402       .  A
C1165      C1170   1.413       .  A
C1166      C1167   1.396       .  A
C1166      H1175   1.083       .  S
C1167      C1168   1.414       .  A
C1167      S1171   1.802       .  S
C1168      C1169   1.402       .  A
C1169      C1170   1.395       .  A
C1169      H1176   1.084       .  S
C1170      S1172   1.804       .  S
S1171      H1174   1.408       .  S
S1172      H1173   1.408       .  S
C1177      C1178   1.401       .  A
C1177      C1182   1.416       .  A
C1178      C1179   1.393       .  A
C1178      H1187   1.084       .  S
C1179      C1180   1.412   1_554  A
C1179      S1183   1.804       .  S
C1180      C1181   1.400       .  A
C1181      C1182   1.398   1_556  A
C1181      H1188   1.084       .  S
C1182      S1184   1.804       .  S
S1183      H1186   1.407   1_554  S
S1184      H1185   1.408       .  S
C1189      C1190   1.406       .  A
C1189      C1194   1.419       .  A
C1190      C1191   1.401       .  A
C1190      H1199   1.083       .  S
C1191      C1192   1.413       .  A
C1191      S1195   1.802       .  S
C1192      C1193   1.402       .  A
C1193      C1194   1.397       .  A
C1193      H1200   1.084       .  S
C1194      S1196   1.801       .  S
S1195      H1198   1.407       .  S
S1196      H1197   1.408       .  S
C1201      C1202   1.404       .  A
C1201      C1206   1.415       .  A
C1202      C1203   1.394       .  A
C1202      H1211   1.085       .  S
C1203      C1204   1.413       .  A
C1203      S1207   1.804       .  S
C1204      C1205   1.404       .  A
C1205      C1206   1.403       .  A
C1205      H1212   1.084       .  S
C1206      S1208   1.801       .  S
S1207      H1210   1.408       .  S
S1208      H1209   1.407       .  S
C1213      C1214   1.406       .  A
C1213      C1218   1.416       .  A
C1214      C1215   1.400       .  A
C1214      H1223   1.084       .  S
C1215      C1216   1.415       .  A
C1215      S1219   1.803       .  S
C1216      C1217   1.405       .  A
C1217      C1218   1.400       .  A
C1217      H1224   1.084       .  S
C1218      S1220   1.801       .  S
S1219      H1222   1.407       .  S
S1220      H1221   1.408       .  S
C1225      C1226   1.404       .  A
C1225      C1230   1.416       .  A
C1226      C1227   1.399       .  A
C1226      H1235   1.083       .  S
C1227      C1228   1.417       .  A
C1227      S1231   1.803       .  S
C1228      C1229   1.406       .  A
C1229      C1230   1.402       .  A
C1229      H1236   1.083       .  S
C1230      S1232   1.802       .  S
S1231      H1234   1.408       .  S
S1232      H1233   1.407       .  S
C1237      C1238   1.407       .  A
C1237      C1242   1.413       .  A
C1238      C1239   1.408       .  A
C1238      H1247   1.084       .  S
C1239      C1240   1.414       .  A
C1239      S1243   1.801       .  S
C1240      C1241   1.405       .  A
C1241      C1242   1.398       .  A
C1241      H1248   1.085       .  S
C1242      S1244   1.804       .  S
S1243      H1246   1.407       .  S
S1244      H1245   1.407       .  S
C1249      C1250   1.410       .  A
C1249      C1254   1.419       .  A
C1250      C1251   1.404       .  A
C1250      H1259   1.083       .  S
C1251      C1252   1.410       .  A
C1251      S1255   1.802       .  S
C1252      C1253   1.400       .  A
C1253      C1254   1.395       .  A
C1253      H1260   1.084       .  S
C1254      S1256   1.801       .  S
S1255      H1258   1.407   1_455  S
S1256      H1257   1.408       .  S
C1261      C1262   1.409       .  A
C1261      C1266   1.418       .  A
C1262      C1263   1.406       .  A
C1262      H1271   1.083       .  S
C1263      C1264   1.413       .  A
C1263      S1267   1.802       .  S
C1264      C1265   1.403       .  A
C1265      C1266   1.399       .  A
C1265      H1272   1.084       .  S
C1266      S1268   1.803       .  S
S1267      H1270   1.407       .  S
S1268      H1269   1.408       .  S
C1273      C1274   1.405       .  A
C1273      C1278   1.416       .  A
C1274      C1275   1.402       .  A
C1274      H1283   1.083       .  S
C1275      C1276   1.417       .  A
C1275      S1279   1.800       .  S
C1276      C1277   1.406       .  A
C1277      C1278   1.396       .  A
C1277      H1284   1.083       .  S
C1278      S1280   1.804       .  S
S1279      H1282   1.408       .  S
S1280      H1281   1.408       .  S
C1285      C1286   1.404       .  A
C1285      C1290   1.414       .  A
C1286      C1287   1.401       .  A
C1286      H1295   1.084       .  S
C1287      C1288   1.418       .  A
C1287      S1291   1.802       .  S
C1288      C1289   1.406       .  A
C1289      C1290   1.400       .  A
C1289      H1296   1.084       .  S
C1290      S1292   1.802       .  S
S1291      H1294   1.408       .  S
S1292      H1293   1.407       .  S
C1297      C1298   1.406       .  A
C1297      C1302   1.418       .  A
C1298      C1299   1.399       .  A
C1298      H1307   1.084       .  S
C1299      C1300   1.416       .  A
C1299      S1303   1.803       .  S
C1300      C1301   1.406       .  A
C1301      C1302   1.402       .  A
C1301      H1308   1.084       .  S
C1302      S1304   1.800       .  S
S1303      H1306   1.408       .  S
S1304      H1305   1.407       .  S
C1309      C1310   1.404       .  A
C1309      C1314   1.417       .  A
C1310      C1311   1.397       .  A
C1310      H1319   1.084       .  S
C1311      C1312   1.414       .  A
C1311      S1315   1.804       .  S
C1312      C1313   1.404       .  A
C1313      C1314   1.405       .  A
C1313      H1320   1.084       .  S
C1314      S1316   1.801       .  S
S1315      H1318   1.408       .  S
S1316      H1317   1.407   1_565  S
C1321      C1322   1.406       .  A
C1321      C1326   1.417       .  A
C1322      C1323   1.404   1_455  A
C1322      H1331   1.083   1_455  S
C1323      C1324   1.415   1_655  A
C1323      S1327   1.802       .  S
C1324      C1325   1.402       .  A
C1325      C1326   1.397       .  A
C1325      H1332   1.084       .  S
C1326      S1328   1.800       .  S
S1327      H1330   1.407       .  S
S1328      H1329   1.405       .  S
C1333      C1334   1.402       .  A
C1333      C1338   1.416   1_455  A
C1334      C1335   1.396       .  A
C1334      H1343   1.085       .  S
C1335      C1336   1.414       .  A
C1335      S1339   1.806       .  S
C1336      C1337   1.405       .  A
C1337      C1338   1.407   1_455  A
C1337      H1344   1.084   1_455  S
C1338      S1340   1.802       .  S
S1339      H1342   1.407       .  S
S1340      H1341   1.407       .  S
