geometry optimzed in LAMMPS
_audit_creation_date              2020-11-30 
_audit_creation_method            'lammps2cif' 
_symmetry_space_group_name_H-M    'P1' 
_symmetry_Int_Tables_number       1 
_symmetry_cell_setting            triclinic 
loop_ 
_symmetry_equiv_pos_as_xyz 
  x,y,z 
_cell_length_a                    39.8726710051586 
_cell_length_b                    25.727016615217416 
_cell_length_c                    46.92373770359597 
_cell_angle_alpha                 90.83777905198883 
_cell_angle_beta                  90.22792120266548 
_cell_angle_gamma                 90.21248147347133 
loop_ 
_atom_site_label 
_atom_site_type_symbol 
_atom_site_fract_x 
_atom_site_fract_y 
_atom_site_fract_z 
_atom_site_charge 
C1          C  0.59508178  0.99686365  0.41213110     0.04520
C2          C  0.56162981  0.00441344  0.40338879    -0.11630
C3          C  0.53617974  0.50966842  0.42369374     0.02020
C4          C  0.54412813  0.50776187  0.45265940    -0.10160
C5          C  0.57697246  0.49825460  0.46173526     0.04510
C6          C  0.60253840  0.99338257  0.44144514    -0.09580
H7          H  0.55524133  0.00571937  0.38095475     0.10110
H8          H  0.52423350  0.51104357  0.46827959     0.07640
H9          H  0.62794092  0.98571417  0.44849666     0.07480
O10         O  0.61586237  0.49158862  0.36420793    -0.56420
C11         C  0.66887117  0.48844800  0.28827333     0.76200
O12         O  0.72345591  0.04343358  0.35862738    -0.57580
C13         C  0.62203769  0.49208358  0.39075632     0.76180
C14         C  0.70524038  0.38619684  0.35806920     0.78570
Cd15       Cd  0.67475227  0.48614399  0.34953583     1.37470
O16         O  0.64257755  0.48400115  0.30312916    -0.56420
O17         O  0.67436283  0.39047772  0.35233623    -0.55230
C18         C  0.70682018  0.08520494  0.35790382     0.78530
O19         O  0.72165697  0.42800177  0.36158144    -0.57600
O20         O  0.69631116  0.49115042  0.30164481    -0.56050
O21         O  0.65258128  0.98876319  0.39806691    -0.56040
O22         O  0.67536914  0.08100172  0.35529491    -0.55220
O23         O  0.28528306  0.50094736  0.30534995    -0.56420
C24         C  0.30692969  0.50385442  0.39269192     0.76200
O25         O  0.20576962  0.05944843  0.36264442    -0.57580
C26         C  0.25873018  0.49967901  0.29043797     0.76180
C27         C  0.22254543  0.40211435  0.35988918     0.78570
Cd28       Cd  0.25353160  0.50174181  0.35169467     1.37470
O29         O  0.31270281  0.50291553  0.36612466    -0.56420
O30         O  0.25373902  0.40654249  0.35580394    -0.55230
C31         C  0.22220260  0.10126894  0.35999412     0.78530
O32         O  0.20595018  0.44378914  0.36219275    -0.57600
O33         O  0.27640268  0.50355957  0.40012791    -0.56050
O34         O  0.23135632  0.49947622  0.30377324    -0.56040
O35         O  0.25329015  0.09709238  0.35536057    -0.55220
C36         C  0.33435011  0.50520870  0.41394758     0.04520
C37         C  0.36802281  0.50562021  0.40505558    -0.11630
C38         C  0.39395647  0.50695231  0.42522591     0.02020
C39         C  0.38631046  0.50672348  0.45430633    -0.10160
C40         C  0.35293842  0.50733923  0.46362541     0.04510
C41         C  0.32701328  0.50675740  0.44330116    -0.09580
H42         H  0.37416110  0.50551797  0.38259099     0.10110
H43         H  0.40656282  0.50699030  0.46980996     0.07640
H44         H  0.30119344  0.50783029  0.45040711     0.07480
O45         O  0.14179434  0.25124792  0.30582181    -0.56420
C46         C  0.12173016  0.25339756  0.39289706     0.76200
O47         O  0.22241966  0.19394878  0.36210836    -0.57580
C48         C  0.16796444  0.24902482  0.29065260     0.76180
C49         C  0.20614421  0.35114541  0.35981554     0.78570
Cd50       Cd  0.17461142  0.25131950  0.35184445     1.37470
O51         O  0.11572911  0.25138865  0.36633881    -0.56420
O52         O  0.17496171  0.34663380  0.35547962    -0.55230
C53         C  0.20578015  0.15206226  0.36013116     0.78530
O54         O  0.22264165  0.30951189  0.36226314    -0.57600
O55         O  0.15232057  0.25409183  0.40036161    -0.56050
O56         O  0.19562658  0.24790818  0.30371437    -0.56040
O57         O  0.17448550  0.15611281  0.35638695    -0.55220
C58         C  0.09444764  0.25462762  0.41407456     0.04520
C59         C  0.06075065  0.25372792  0.40503843    -0.11630
C60         C  0.03490812  0.25385296  0.42509376     0.02020
C61         C  0.04260478  0.25387807  0.45414814    -0.10160
C62         C  0.07594681  0.25674657  0.46362776     0.04510
C63         C  0.10185856  0.25718244  0.44345488    -0.09580
H64         H  0.05450699  0.25330892  0.38255132     0.10110
H65         H  0.02236313  0.25321824  0.46951623     0.07640
H66         H  0.12767548  0.25976721  0.45066561     0.07480
C67         C  0.83534651  0.24453169  0.41181165     0.04520
C68         C  0.86785958  0.25379241  0.40170247    -0.11630
C69         C  0.89277570  0.27099787  0.42050803     0.02020
C70         C  0.88437534  0.28280808  0.44868025    -0.10160
C71         C  0.85475507  0.26291266  0.46074652     0.04510
C72         C  0.82984311  0.24408639  0.44154166    -0.09580
H73         H  0.87391098  0.24765132  0.37942840     0.10110
H74         H  0.90304314  0.30224905  0.46181903     0.07640
H75         H  0.80646519  0.22833155  0.44912230     0.07480
O76         O  0.81262450  0.23699192  0.36457588    -0.56420
C77         C  0.75941983  0.23849366  0.28899220     0.76200
O78         O  0.70689488  0.17763772  0.36213264    -0.57580
C79         C  0.80744327  0.23793249  0.39123172     0.76180
C80         C  0.72165130  0.33534031  0.35847202     0.78570
Cd81       Cd  0.75368431  0.23605701  0.35034977     1.37470
O82         O  0.78577332  0.23993346  0.30415134    -0.56420
O83         O  0.75309159  0.33130896  0.35602543    -0.55230
C84         C  0.72320941  0.13612321  0.35796519     0.78530
O85         O  0.70504937  0.29338849  0.35941469    -0.57600
O86         O  0.73197008  0.23522451  0.30208819    -0.56050
O87         O  0.77709514  0.23623863  0.39913250    -0.56040
O88         O  0.75396739  0.14076286  0.35203919    -0.55220
C89         C  0.59333854  0.48901756  0.13381054     0.04520
C90         C  0.60045873  0.48675621  0.10441760    -0.11630
C91         C  0.57441464  0.48712003  0.08418067     0.02020
C92         C  0.54113198  0.48922557  0.09370193    -0.10160
C93         C  0.53364823  0.48899368  0.12281299     0.04510
C94         C  0.55971545  0.48962193  0.14286378    -0.09580
H95         H  0.62621211  0.48444779  0.09723494     0.10110
H96         H  0.52075914  0.48972187  0.07832358     0.07640
H97         H  0.55371771  0.48982250  0.16535561     0.07480
O98         O  0.64247055  0.48790797  0.24194930    -0.56420
C99         C  0.62091856  0.49012271  0.15494949     0.76200
O100        O  0.72146384  0.05069711  0.18343111    -0.57580
C101        C  0.66882363  0.49029087  0.25707979     0.76180
C102        C  0.70671956  0.39317947  0.18803812     0.78570
Cd103      Cd  0.67457016  0.49219621  0.19583122     1.37470
O104        O  0.61531902  0.49247640  0.18152633    -0.56420
O105        O  0.67523778  0.39705189  0.19013668    -0.55230
C106        C  0.70525387  0.09237365  0.18738092     0.78530
O107        O  0.72330750  0.43516560  0.18741186    -0.57600
O108        O  0.65140734  0.48893342  0.14741106    -0.56050
O109        O  0.69622499  0.49428552  0.24398133    -0.56040
O110        O  0.67450694  0.08782422  0.19339183    -0.55220
O111        O  0.31102198  0.49272119  0.18327591    -0.56420
C112        C  0.25843367  0.49847562  0.25922422     0.76200
O113        O  0.20449310  0.05382379  0.18716189    -0.57580
C114        C  0.30496256  0.49397394  0.15673803     0.76180
C115        C  0.22011462  0.39652745  0.19005087     0.78570
Cd116      Cd  0.25205421  0.49627940  0.19798423     1.37470
O117        O  0.28468908  0.49918567  0.24412237    -0.56420
O118        O  0.25141039  0.40086385  0.19382742    -0.55230
C119        C  0.22098718  0.09572634  0.18994399     0.78530
O120        O  0.20366742  0.43829545  0.18803871    -0.57600
O121        O  0.23081921  0.49668698  0.24608267    -0.56050
O122        O  0.27438257  0.99654277  0.14941437    -0.56040
O123        O  0.25213878  0.09168126  0.19448354    -0.55220
C124        C  0.33212317  0.49233122  0.13540151     0.04520
C125        C  0.32465654  0.49690462  0.10614376    -0.11630
C126        C  0.35042248  0.49533516  0.08589446     0.02020
C127        C  0.38354754  0.48828753  0.09493380    -0.10160
C128        C  0.39143860  0.48497525  0.12386088     0.04510
C129        C  0.36577477  0.48688764  0.14413619    -0.09580
H130        H  0.29902576  0.50263385  0.09910476     0.10110
H131        H  0.40355891  0.48725697  0.07934154     0.07640
H132        H  0.37211764  0.48442448  0.16653911     0.07480
O133        O  0.14099347  0.25018647  0.24458298    -0.56420
C134        C  0.11962269  0.24100658  0.15680296     0.76200
O135        O  0.22003598  0.30385892  0.18722078    -0.57580
C136        C  0.16752928  0.24779829  0.25944758     0.76180
C137        C  0.20448842  0.14647072  0.19003636     0.78570
Cd138      Cd  0.17266359  0.24571454  0.19822195     1.37470
O139        O  0.11356881  0.23800375  0.18325068    -0.56420
O140        O  0.17326313  0.15041789  0.19399181    -0.55230
C141        C  0.20359346  0.34558281  0.19008469     0.78530
O142        O  0.22091263  0.18843288  0.18798766    -0.57600
O143        O  0.15006367  0.24685900  0.14981448    -0.56050
O144        O  0.19479258  0.24437784  0.24607254    -0.56040
O145        O  0.17250749  0.34118414  0.19478815    -0.55220
C146        C  0.09272937  0.23755387  0.13508972     0.04520
C147        C  0.10013099  0.24677366  0.10629105    -0.11630
C148        C  0.07491594  0.24323362  0.08548716     0.02020
C149        C  0.04220369  0.23016997  0.09349774    -0.10160
C150        C  0.03430613  0.22112912  0.12204282     0.04510
C151        C  0.05962616  0.22487323  0.14285137    -0.09580
H152        H  0.12538694  0.25712073  0.09997688     0.10110
H153        H  0.02260784  0.22779610  0.07742453     0.07640
H154        H  0.05344845  0.21801919  0.16493661     0.07480
C155        C  0.83510536  0.23663702  0.13485031     0.04520
C156        C  0.82985888  0.24920704  0.10597450    -0.11630
C157        C  0.85417540  0.23675173  0.08520470     0.02020
C158        C  0.88354319  0.21171318  0.09450575    -0.10160
C159        C  0.89165904  0.20850307  0.12340849     0.04510
C160        C  0.86673801  0.21869517  0.14358246    -0.09580
H161        H  0.80716561  0.26934261  0.10020196     0.10110
H162        H  0.90200870  0.19885774  0.07915196     0.07640
H163        H  0.87224988  0.21338360  0.16596972     0.07480
O164        O  0.81293923  0.23672624  0.18233700    -0.56420
C165        C  0.75946133  0.24051064  0.25777250     0.76200
O166        O  0.70703791  0.30063957  0.18402303    -0.57580
C167        C  0.80766862  0.24124202  0.15581240     0.76180
C168        C  0.72175646  0.14337459  0.18726036     0.78570
Cd169      Cd  0.75391914  0.24280967  0.19636158     1.37470
O170        O  0.78585672  0.24367550  0.24295056    -0.56420
O171        O  0.75324255  0.14763770  0.18952699    -0.55230
C172        C  0.72319726  0.34245533  0.18840139     0.78530
O173        O  0.70518388  0.18520655  0.18687432    -0.57600
O174        O  0.73203778  0.23915905  0.24432995    -0.56050
O175        O  0.77748259  0.24771694  0.14811606    -0.56040
O176        O  0.75387951  0.33830184  0.19487018    -0.55220
C177        C  0.92782342  0.20345494  0.13136977    -0.03950
C178        C  0.94698622  0.16195745  0.12003189    -0.01060
C179        C  0.98225513  0.16594216  0.11882298     0.03930
C180        C  0.99869783  0.21084044  0.12961929    -0.03950
C181        C  0.97992985  0.24948479  0.14395650    -0.01050
C182        C  0.94460525  0.24603760  0.14470842     0.03920
C183        C  0.93021789  0.11630250  0.10825234     0.38570
C184        C  0.99675072  0.29504406  0.15584653     0.38560
C185        C  0.92563503  0.28882737  0.15697167     0.36990
C186        C  0.00158995  0.12497678  0.10518778     0.36990
N187        N  0.91058345  0.32301463  0.16677381    -0.37830
N188        N  0.01706449  0.09250469  0.09417640    -0.37830
N189        N  0.01022006  0.33132053  0.16532264    -0.37280
N190        N  0.91678435  0.08002181  0.09874723    -0.37280
C191        C  0.49799130  0.48515068  0.13147688    -0.03950
C192        C  0.47994445  0.03013334  0.13933609    -0.01060
C193        C  0.44455968  0.02870543  0.13993042     0.03930
C194        C  0.42732669  0.48259191  0.13207422    -0.03950
C195        C  0.44550459  0.43646555  0.12705116    -0.01050
C196        C  0.48080903  0.43755332  0.12744636     0.03920
C197        C  0.49770658  0.07832763  0.14537472     0.38570
C198        C  0.42785792  0.38858333  0.11992747     0.38560
C199        C  0.49958716  0.38993580  0.12319657     0.36990
C200        C  0.42580647  0.07541221  0.14675523     0.36990
N201        N  0.51459431  0.35182412  0.12030192    -0.37830
N202        N  0.41069678  0.11250291  0.15229191    -0.37830
N203        N  0.41376739  0.35047119  0.11407520    -0.37280
N204        N  0.51189658  0.11675943  0.15029833    -0.37280
C205        C  0.85235314  0.25884332  0.49300413    -0.03950
C206        C  0.88214899  0.25417682  0.00951952    -0.01060
C207        C  0.88119589  0.26211308  0.03897286     0.03930
C208        C  0.85142531  0.25120119  0.05406021    -0.03950
C209        C  0.82103174  0.25004639  0.03803577    -0.01050
C210        C  0.82149465  0.26037024  0.00828466     0.03920
C211        C  0.91342697  0.23496578  0.49766130     0.38570
C212        C  0.78936283  0.23705264  0.05122327     0.38320
C213        C  0.79028507  0.27374004  0.49432365     0.36990
C214        C  0.91099878  0.28260697  0.05320726     0.36990
N215        N  0.76518652  0.28471961  0.48352424    -0.37830
N216        N  0.93471339  0.29910603  0.06446986    -0.37830
N217        N  0.76386189  0.22654423  0.06139297    -0.37280
N218        N  0.93843590  0.21931193  0.48856503    -0.37280
C219        C  0.08268918  0.26009595  0.49490530    -0.03950
C220        C  0.10188665  0.22165532  0.00870629    -0.01060
C221        C  0.10174173  0.21872194  0.03874335     0.03930
C222        C  0.08195269  0.25350487  0.05499212    -0.03950
C223        C  0.06574318  0.29510502  0.04140398    -0.01050
C224        C  0.06649790  0.29882202  0.01152230     0.03920
C225        C  0.12024113  0.18325218  0.49214215     0.38570
C226        C  0.04749845  0.33339485  0.05819342     0.38560
C227        C  0.04990738  0.34199265  0.49779557     0.36990
C228        C  0.12053074  0.17822386  0.05281086     0.36990
N229        N  0.03659908  0.37624444  0.48678803    -0.37830
N230        N  0.13571433  0.14619373  0.06408738    -0.37830
N231        N  0.03285258  0.36378135  0.07159176    -0.37280
N232        N  0.13509381  0.15272996  0.47900423    -0.37280
C233        C  0.99924147  0.25685185  0.41639975    -0.03950
C234        C  0.98437956  0.30592577  0.41230486    -0.01060
C235        C  0.94917585  0.31043617  0.41096764     0.03930
C236        C  0.92883955  0.26586260  0.41347098    -0.03950
C237        C  0.94388777  0.21623934  0.41518079    -0.01050
C238        C  0.97904388  0.21182490  0.41676545     0.03920
C239        C  0.00529425  0.35209074  0.41136282     0.38570
C240        C  0.92313114  0.17007483  0.41781040     0.38560
C241        C  0.99440727  0.16132517  0.42055228     0.36990
C242        C  0.93372815  0.36109031  0.40854908     0.36990
N243        N  0.00668727  0.12110157  0.42366234    -0.37830
N244        N  0.92130093  0.40147244  0.40665268    -0.37830
N245        N  0.90655583  0.13334041  0.42002876    -0.37280
N246        N  0.02211391  0.38879644  0.41065562    -0.37280
C247        C  0.34591533  0.50947728  0.49487077    -0.03950
C248        C  0.36023641  0.04967198  0.01189833    -0.01060
C249        C  0.35943864  0.04682786  0.04180160     0.03930
C250        C  0.34405264  0.50406305  0.05507159    -0.03950
C251        C  0.32645216  0.46695930  0.03827817    -0.01050
C252        C  0.32754325  0.46941143  0.00820424     0.03920
C253        C  0.37635623  0.09386069  0.49876255     0.38570
C254        C  0.30858078  0.42491770  0.05188209     0.38560
C255        C  0.31128578  0.42908156  0.49115757     0.36990
C256        C  0.37531050  0.08740184  0.05904039     0.36990
N257        N  0.29812888  0.39700845  0.47759988    -0.37830
N258        N  0.38808794  0.11950379  0.07283735    -0.37830
N259        N  0.29409594  0.39161691  0.06275854    -0.37280
N260        N  0.38937577  0.12936117  0.48869363    -0.37280
C261        C  0.58298619  0.48927735  0.49259126    -0.03950
C262        C  0.60226310  0.02447184  0.00926710    -0.01060
C263        C  0.60116805  0.02231174  0.03936246     0.03930
C264        C  0.58116037  0.48427736  0.05285013    -0.03950
C265        C  0.56510402  0.44555343  0.03587480    -0.01050
C266        C  0.56586167  0.44825155  0.00597213     0.03920
C267        C  0.62202966  0.06427023  0.49551718     0.38570
C268        C  0.54722319  0.40299899  0.04899792     0.38560
C269        C  0.54818090  0.40933623  0.48883960     0.36990
C270        C  0.61923509  0.06098564  0.05623717     0.36990
N271        N  0.53394429  0.37862464  0.47512686    -0.37830
N272        N  0.63386981  0.09170284  0.06963933    -0.37830
N273        N  0.53268505  0.36878612  0.05891646    -0.37280
N274        N  0.63804903  0.09572311  0.48453104    -0.37280
C275        C  0.42963500  0.51048627  0.41663857    -0.03950
C276        C  0.44700260  0.05796589  0.42048787    -0.01060
C277        C  0.48231634  0.05879801  0.42050712     0.03930
C278        C  0.50028736  0.51244658  0.41555051    -0.03950
C279        C  0.48282275  0.46635713  0.40803179    -0.01050
C280        C  0.44745913  0.46525976  0.40883068     0.03920
C281        C  0.42842981  0.10570034  0.42501338     0.38570
C282        C  0.50131884  0.41927099  0.40146799     0.38560
C283        C  0.42950721  0.41707480  0.40318355     0.36990
C284        C  0.50021228  0.10669763  0.42709194     0.36990
N285        N  0.41517705  0.37863650  0.39860315    -0.37830
N286        N  0.51449192  0.14485964  0.43247185    -0.37830
N287        N  0.51622650  0.38187384  0.39616645    -0.37280
N288        N  0.41360121  0.14391441  0.42817597    -0.37280
C289        C  0.59508177  0.99686365  0.91213110     0.04520
C290        C  0.56162980  0.00441344  0.90338879    -0.11630
C291        C  0.53617970  0.50966838  0.92369376     0.02020
C292        C  0.54412811  0.50776185  0.95265943    -0.10160
C293        C  0.57697244  0.49825459  0.96173527     0.04510
C294        C  0.60253839  0.99338258  0.94144514    -0.09580
H295        H  0.55524133  0.00571938  0.88095475     0.10110
H296        H  0.52423349  0.51104355  0.96827962     0.07640
H297        H  0.62794092  0.98571417  0.94849666     0.07480
O298        O  0.61586232  0.49158859  0.86420793    -0.56420
C299        C  0.66887113  0.48844800  0.78827333     0.76200
O300        O  0.72345592  0.04343359  0.85862738    -0.57580
C301        C  0.62203764  0.49208356  0.89075632     0.76180
C302        C  0.70524035  0.38619684  0.85806920     0.78570
Cd303      Cd  0.67475223  0.48614398  0.84953583     1.37470
O304        O  0.64257752  0.48400115  0.80312916    -0.56420
O305        O  0.67436280  0.39047771  0.85233623    -0.55230
C306        C  0.70682018  0.08520494  0.85790382     0.78530
O307        O  0.72165694  0.42800177  0.86158144    -0.57600
O308        O  0.69631112  0.49115040  0.80164481    -0.56050
O309        O  0.65258128  0.98876320  0.89806691    -0.56040
O310        O  0.67536915  0.08100172  0.85529491    -0.55220
O311        O  0.28528304  0.50094738  0.80534993    -0.56420
C312        C  0.30692966  0.50385443  0.89269192     0.76200
O313        O  0.20576962  0.05944842  0.86264441    -0.57580
C314        C  0.25873017  0.49967902  0.79043795     0.76180
C315        C  0.22254543  0.40211435  0.85988916     0.78570
Cd316      Cd  0.25353159  0.50174181  0.85169465     1.37470
O317        O  0.31270279  0.50291554  0.86612466    -0.56420
O318        O  0.25373901  0.40654249  0.85580392    -0.55230
C319        C  0.22220260  0.10126893  0.85999411     0.78530
O320        O  0.20595017  0.44378913  0.86219273    -0.57600
O321        O  0.27640264  0.50355958  0.90012790    -0.56050
O322        O  0.23135631  0.49947622  0.80377322    -0.56040
O323        O  0.25329014  0.09709237  0.85536057    -0.55220
C324        C  0.33435007  0.50520873  0.91394759     0.04520
C325        C  0.36802277  0.50562025  0.90505562    -0.11630
C326        C  0.39395642  0.50695239  0.92522596     0.02020
C327        C  0.38631038  0.50672363  0.95430638    -0.10160
C328        C  0.35293834  0.50733934  0.96362543     0.04510
C329        C  0.32701321  0.50675744  0.94330117    -0.09580
H330        H  0.37416108  0.50551797  0.88259103     0.10110
H331        H  0.40656273  0.50699050  0.96981002     0.07640
H332        H  0.30119337  0.50783029  0.95040711     0.07480
O333        O  0.14179433  0.25124791  0.80582180    -0.56420
C334        C  0.12173016  0.25339756  0.89289706     0.76200
O335        O  0.22241966  0.19394877  0.86210837    -0.57580
C336        C  0.16796443  0.24902482  0.79065260     0.76180
C337        C  0.20614420  0.35114541  0.85981553     0.78570
Cd338      Cd  0.17461142  0.25131950  0.85184444     1.37470
O339        O  0.11572911  0.25138865  0.86633881    -0.56420
O340        O  0.17496171  0.34663379  0.85547961    -0.55230
C341        C  0.20578015  0.15206225  0.86013116     0.78530
O342        O  0.22264165  0.30951189  0.86226313    -0.57600
O343        O  0.15232057  0.25409183  0.90036160    -0.56050
O344        O  0.19562658  0.24790818  0.80371436    -0.56040
O345        O  0.17448550  0.15611281  0.85638694    -0.55220
C346        C  0.09444764  0.25462762  0.91407456     0.04520
C347        C  0.06075065  0.25372793  0.90503843    -0.11630
C348        C  0.03490813  0.25385297  0.92509376     0.02020
C349        C  0.04260478  0.25387808  0.95414814    -0.10160
C350        C  0.07594682  0.25674657  0.96362776     0.04510
C351        C  0.10185857  0.25718244  0.94345488    -0.09580
H352        H  0.05450699  0.25330893  0.88255132     0.10110
H353        H  0.02236314  0.25321825  0.96951623     0.07640
H354        H  0.12767548  0.25976721  0.95066561     0.07480
C355        C  0.83534651  0.24453170  0.91181165     0.04520
C356        C  0.86785958  0.25379243  0.90170247    -0.11630
C357        C  0.89277570  0.27099788  0.92050803     0.02020
C358        C  0.88437534  0.28280810  0.94868025    -0.10160
C359        C  0.85475508  0.26291267  0.96074652     0.04510
C360        C  0.82984311  0.24408640  0.94154166    -0.09580
H361        H  0.87391098  0.24765134  0.87942840     0.10110
H362        H  0.90304314  0.30224906  0.96181903     0.07640
H363        H  0.80646519  0.22833156  0.94912230     0.07480
O364        O  0.81262450  0.23699194  0.86457588    -0.56420
C365        C  0.75941983  0.23849367  0.78899221     0.76200
O366        O  0.70689489  0.17763772  0.86213264    -0.57580
C367        C  0.80744328  0.23793251  0.89123172     0.76180
C368        C  0.72165128  0.33534032  0.85847202     0.78570
Cd369      Cd  0.75368430  0.23605702  0.85034977     1.37470
O370        O  0.78577332  0.23993349  0.80415134    -0.56420
O371        O  0.75309157  0.33130898  0.85602544    -0.55230
C372        C  0.72320941  0.13612322  0.85796520     0.78530
O373        O  0.70504935  0.29338849  0.85941469    -0.57600
O374        O  0.73197008  0.23522451  0.80208819    -0.56050
O375        O  0.77709515  0.23623864  0.89913251    -0.56040
O376        O  0.75396739  0.14076287  0.85203919    -0.55220
C377        C  0.59333853  0.48901755  0.63381053     0.04520
C378        C  0.60045871  0.48675620  0.60441760    -0.11630
C379        C  0.57441462  0.48712002  0.58418066     0.02020
C380        C  0.54113196  0.48922556  0.59370192    -0.10160
C381        C  0.53364821  0.48899366  0.62281299     0.04510
C382        C  0.55971543  0.48962191  0.64286378    -0.09580
H383        H  0.62621210  0.48444778  0.59723493     0.10110
H384        H  0.52075912  0.48972186  0.57832358     0.07640
H385        H  0.55371770  0.48982247  0.66535561     0.07480
O386        O  0.64247052  0.48790797  0.74194929    -0.56420
C387        C  0.62091855  0.49012270  0.65494949     0.76200
O388        O  0.72146385  0.05069712  0.68343111    -0.57580
C389        C  0.66882360  0.49029087  0.75707978     0.76180
C390        C  0.70671954  0.39317947  0.68803812     0.78570
Cd391      Cd  0.67457014  0.49219620  0.69583122     1.37470
O392        O  0.61531900  0.49247639  0.68152632    -0.56420
O393        O  0.67523776  0.39705188  0.69013668    -0.55230
C394        C  0.70525387  0.09237365  0.68738092     0.78530
O395        O  0.72330748  0.43516561  0.68741186    -0.57600
O396        O  0.65140732  0.48893341  0.64741105    -0.56050
O397        O  0.69622496  0.49428551  0.74398133    -0.56040
O398        O  0.67450695  0.08782422  0.69339183    -0.55220
O399        O  0.31102195  0.49272120  0.68327589    -0.56420
C400        C  0.25843365  0.49847565  0.75922421     0.76200
O401        O  0.20449312  0.05382382  0.68716188    -0.57580
C402        C  0.30496254  0.49397395  0.65673801     0.76180
C403        C  0.22011460  0.39652748  0.69005085     0.78570
Cd404      Cd  0.25205419  0.49627944  0.69798422     1.37470
O405        O  0.28468906  0.49918571  0.74412235    -0.56420
O406        O  0.25141038  0.40086389  0.69382740    -0.55230
C407        C  0.22098719  0.09572636  0.68994399     0.78530
O408        O  0.20366740  0.43829548  0.68803870    -0.57600
O409        O  0.23081920  0.49668699  0.74608266    -0.56050
O410        O  0.27438258  0.99654278  0.64941437    -0.56040
O411        O  0.25213879  0.09168129  0.69448354    -0.55220
C412        C  0.33212316  0.49233118  0.63540150     0.04520
C413        C  0.32465655  0.49690457  0.60614375    -0.11630
C414        C  0.35042250  0.49533504  0.58589445     0.02020
C415        C  0.38354755  0.48828734  0.59493381    -0.10160
C416        C  0.39143859  0.48497511  0.62386090     0.04510
C417        C  0.36577476  0.48688757  0.64413619    -0.09580
H418        H  0.29902578  0.50263385  0.59910474     0.10110
H419        H  0.40355892  0.48725672  0.57934156     0.07640
H420        H  0.37211761  0.48442444  0.66653912     0.07480
O421        O  0.14099347  0.25018647  0.74458298    -0.56420
C422        C  0.11962268  0.24100659  0.65680296     0.76200
O423        O  0.22003597  0.30385895  0.68722077    -0.57580
C424        C  0.16752928  0.24779830  0.75944757     0.76180
C425        C  0.20448843  0.14647075  0.69003635     0.78570
Cd426      Cd  0.17266360  0.24571456  0.69822194     1.37470
O427        O  0.11356881  0.23800376  0.68325068    -0.56420
O428        O  0.17326314  0.15041791  0.69399180    -0.55230
C429        C  0.20359345  0.34558284  0.69008468     0.78530
O430        O  0.22091264  0.18843291  0.68798766    -0.57600
O431        O  0.15006367  0.24685902  0.64981447    -0.56050
O432        O  0.19479258  0.24437786  0.74607253    -0.56040
O433        O  0.17250748  0.34118416  0.69478814    -0.55220
C434        C  0.09272937  0.23755388  0.63508972     0.04520
C435        C  0.10013098  0.24677367  0.60629105    -0.11630
C436        C  0.07491593  0.24323363  0.58548716     0.02020
C437        C  0.04220368  0.23016997  0.59349774    -0.10160
C438        C  0.03430613  0.22112913  0.62204282     0.04510
C439        C  0.05962616  0.22487324  0.64285137    -0.09580
H440        H  0.12538693  0.25712073  0.59997688     0.10110
H441        H  0.02260783  0.22779610  0.57742454     0.07640
H442        H  0.05344844  0.21801920  0.66493662     0.07480
C443        C  0.83510535  0.23663703  0.63485031     0.04520
C444        C  0.82985887  0.24920705  0.60597450    -0.11630
C445        C  0.85417539  0.23675173  0.58520470     0.02020
C446        C  0.88354319  0.21171318  0.59450575    -0.10160
C447        C  0.89165904  0.20850309  0.62340849     0.04510
C448        C  0.86673801  0.21869518  0.64358246    -0.09580
H449        H  0.80716560  0.26934262  0.60020196     0.10110
H450        H  0.90200869  0.19885774  0.57915197     0.07640
H451        H  0.87224987  0.21338362  0.66596973     0.07480
O452        O  0.81293923  0.23672626  0.68233700    -0.56420
C453        C  0.75946133  0.24051065  0.75777251     0.76200
O454        O  0.70703790  0.30063957  0.68402303    -0.57580
C455        C  0.80766861  0.24124204  0.65581240     0.76180
C456        C  0.72175647  0.14337459  0.68726037     0.78570
Cd457      Cd  0.75391914  0.24280969  0.69636159     1.37470
O458        O  0.78585671  0.24367552  0.74295056    -0.56420
O459        O  0.75324255  0.14763771  0.68952699    -0.55230
C460        C  0.72319725  0.34245534  0.68840139     0.78530
O461        O  0.70518388  0.18520655  0.68687432    -0.57600
O462        O  0.73203778  0.23915905  0.74432995    -0.56050
O463        O  0.77748259  0.24771696  0.64811607    -0.56040
O464        O  0.75387949  0.33830185  0.69487018    -0.55220
C465        C  0.92782342  0.20345495  0.63136978    -0.03950
C466        C  0.94698622  0.16195745  0.62003190    -0.01060
C467        C  0.98225513  0.16594216  0.61882299     0.03930
C468        C  0.99869783  0.21084045  0.62961929    -0.03950
C469        C  0.97992984  0.24948480  0.64395650    -0.01050
C470        C  0.94460525  0.24603761  0.64470843     0.03920
C471        C  0.93021788  0.11630250  0.60825235     0.38570
C472        C  0.99675072  0.29504407  0.65584653     0.38560
C473        C  0.92563502  0.28882738  0.65697167     0.36990
C474        C  0.00158994  0.12497679  0.60518779     0.36990
N475        N  0.91058345  0.32301465  0.66677381    -0.37830
N476        N  0.01706449  0.09250469  0.59417641    -0.37830
N477        N  0.01022006  0.33132054  0.66532264    -0.37280
N478        N  0.91678434  0.08002181  0.59874724    -0.37280
C479        C  0.49799129  0.48515063  0.63147688    -0.03950
C480        C  0.47994447  0.03013334  0.63933608    -0.01060
C481        C  0.44455970  0.02870543  0.63993042     0.03930
C482        C  0.42732668  0.48259180  0.63207425    -0.03950
C483        C  0.44550460  0.43646546  0.62705119    -0.01050
C484        C  0.48080903  0.43755325  0.62744637     0.03920
C485        C  0.49770660  0.07832763  0.64537472     0.38570
C486        C  0.42785794  0.38858320  0.61992753     0.38560
C487        C  0.49958718  0.38993575  0.62319658     0.36990
C488        C  0.42580648  0.07541222  0.64675522     0.36990
N489        N  0.51459435  0.35182409  0.62030193    -0.37830
N490        N  0.41069679  0.11250292  0.65229190    -0.37830
N491        N  0.41376742  0.35047105  0.61407528    -0.37280
N492        N  0.51189659  0.11675943  0.65029832    -0.37280
C493        C  0.85235314  0.25884333  0.99300413    -0.03950
C494        C  0.88214899  0.25417681  0.50951952    -0.01060
C495        C  0.88119588  0.26211307  0.53897286     0.03930
C496        C  0.85142531  0.25120119  0.55406021    -0.03950
C497        C  0.82103174  0.25004638  0.53803577    -0.01050
C498        C  0.82149464  0.26037023  0.50828466     0.03920
C499        C  0.91342698  0.23496579  0.99766130     0.38570
C500        C  0.78936283  0.23705264  0.55122327     0.38320
C501        C  0.79028507  0.27374005  0.99432364     0.36990
C502        C  0.91099878  0.28260696  0.55320725     0.36990
N503        N  0.76518653  0.28471963  0.98352424    -0.37830
N504        N  0.93471338  0.29910603  0.56446986    -0.37830
N505        N  0.76386189  0.22654423  0.56139297    -0.37280
N506        N  0.93843591  0.21931195  0.98856503    -0.37280
C507        C  0.08268919  0.26009595  0.99490530    -0.03950
C508        C  0.10188664  0.22165531  0.50870629    -0.01060
C509        C  0.10174172  0.21872194  0.53874335     0.03930
C510        C  0.08195268  0.25350487  0.55499212    -0.03950
C511        C  0.06574316  0.29510501  0.54140398    -0.01050
C512        C  0.06649789  0.29882202  0.51152229     0.03920
C513        C  0.12024114  0.18325218  0.99214215     0.38570
C514        C  0.04749843  0.33339485  0.55819342     0.38560
C515        C  0.04990740  0.34199266  0.99779557     0.36990
C516        C  0.12053073  0.17822387  0.55281086     0.36990
N517        N  0.03659909  0.37624445  0.98678803    -0.37830
N518        N  0.13571432  0.14619374  0.56408738    -0.37830
N519        N  0.03285257  0.36378135  0.57159176    -0.37280
N520        N  0.13509382  0.15272997  0.97900422    -0.37280
C521        C  0.99924148  0.25685186  0.91639976    -0.03950
C522        C  0.98437957  0.30592578  0.91230486    -0.01060
C523        C  0.94917586  0.31043619  0.91096765     0.03930
C524        C  0.92883955  0.26586261  0.91347097    -0.03950
C525        C  0.94388777  0.21623935  0.91518079    -0.01050
C526        C  0.97904388  0.21182491  0.91676545     0.03920
C527        C  0.00529426  0.35209076  0.91136283     0.38570
C528        C  0.92313114  0.17007484  0.91781039     0.38560
C529        C  0.99440727  0.16132518  0.92055228     0.36990
C530        C  0.93372815  0.36109032  0.90854909     0.36990
N531        N  0.00668728  0.12110158  0.92366233    -0.37830
N532        N  0.92130093  0.40147246  0.90665270    -0.37830
N533        N  0.90655583  0.13334042  0.92002875    -0.37280
N534        N  0.02211391  0.38879646  0.91065563    -0.37280
C535        C  0.34591522  0.50947738  0.99487078    -0.03950
C536        C  0.36023642  0.04967198  0.51189833    -0.01060
C537        C  0.35943865  0.04682786  0.54180160     0.03930
C538        C  0.34405270  0.50406296  0.55507158    -0.03950
C539        C  0.32645213  0.46695931  0.53827815    -0.01050
C540        C  0.32754325  0.46941143  0.50820422     0.03920
C541        C  0.37635622  0.09386069  0.99876255     0.38570
C542        C  0.30858063  0.42491783  0.55188206     0.38560
C543        C  0.31128587  0.42908146  0.99115760     0.36990
C544        C  0.37531051  0.08740184  0.55904039     0.36990
N545        N  0.29812904  0.39700828  0.97759990    -0.37830
N546        N  0.38808795  0.11950379  0.57283735    -0.37830
N547        N  0.29409568  0.39161714  0.56275850    -0.37280
N548        N  0.38937577  0.12936116  0.98869363    -0.37280
C549        C  0.58298619  0.48927735  0.99259127    -0.03950
C550        C  0.60226311  0.02447184  0.50926710    -0.01060
C551        C  0.60116806  0.02231173  0.53936246     0.03930
C552        C  0.58116035  0.48427736  0.55285012    -0.03950
C553        C  0.56510400  0.44555344  0.53587479    -0.01050
C554        C  0.56586165  0.44825157  0.50597211     0.03920
C555        C  0.62202965  0.06427023  0.99551718     0.38570
C556        C  0.54722315  0.40299901  0.54899791     0.38560
C557        C  0.54818092  0.40933620  0.98883962     0.36990
C558        C  0.61923510  0.06098564  0.55623717     0.36990
N559        N  0.53394432  0.37862460  0.97512688    -0.37830
N560        N  0.63386982  0.09170284  0.56963933    -0.37830
N561        N  0.53268500  0.36878616  0.55891644    -0.37280
N562        N  0.63804903  0.09572311  0.98453104    -0.37280
C563        C  0.42963496  0.51048627  0.91663864    -0.03950
C564        C  0.44700259  0.05796589  0.92048787    -0.01060
C565        C  0.48231633  0.05879801  0.92050712     0.03930
C566        C  0.50028732  0.51244652  0.91555055    -0.03950
C567        C  0.48282269  0.46635703  0.90803194    -0.01050
C568        C  0.44745907  0.46525970  0.90883084     0.03920
C569        C  0.42842981  0.10570034  0.92501338     0.38570
C570        C  0.50131876  0.41927083  0.90146824     0.38560
C571        C  0.42950713  0.41707472  0.90318382     0.36990
C572        C  0.50021228  0.10669763  0.92709194     0.36990
N573        N  0.41517696  0.37863639  0.89860351    -0.37830
N574        N  0.51449191  0.14485964  0.93247185    -0.37830
N575        N  0.51622640  0.38187362  0.89616678    -0.37280
N576        N  0.41360121  0.14391440  0.92817597    -0.37280
C577        C  0.59508180  0.49686371  0.41213109     0.04520
C578        C  0.56162984  0.50441351  0.40338878    -0.11630
C579        C  0.53617972  0.00966834  0.42369376     0.02020
C580        C  0.54412812  0.00776181  0.45265943    -0.10160
C581        C  0.57697245  0.99825454  0.46173527     0.04510
C582        C  0.60253841  0.49338262  0.44144514    -0.09580
H583        H  0.55524137  0.50571946  0.38095473     0.10110
H584        H  0.52423350  0.01104351  0.46827962     0.07640
H585        H  0.62794093  0.48571421  0.44849667     0.07480
O586        O  0.61586233  0.99158858  0.36420793    -0.56420
C587        C  0.66887115  0.98844799  0.28827333     0.76200
O588        O  0.72345595  0.54343359  0.35862737    -0.57580
C589        C  0.62203766  0.99208354  0.39075632     0.76180
C590        C  0.70524037  0.88619684  0.35806919     0.78570
Cd591      Cd  0.67475225  0.98614398  0.34953583     1.37470
O592        O  0.64257753  0.98400115  0.30312916    -0.56420
O593        O  0.67436282  0.89047771  0.35233623    -0.55230
C594        C  0.70682021  0.58520495  0.35790382     0.78530
O595        O  0.72165696  0.92800178  0.36158144    -0.57600
O596        O  0.69631114  0.99115040  0.30164481    -0.56050
O597        O  0.65258131  0.48876322  0.39806691    -0.56040
O598        O  0.67536917  0.58100173  0.35529491    -0.55220
O599        O  0.28528305  0.00094738  0.30534994    -0.56420
C600        C  0.30692967  0.00385444  0.39269192     0.76200
O601        O  0.20576963  0.55944843  0.36264444    -0.57580
C602        C  0.25873018  0.99967901  0.29043795     0.76180
C603        C  0.22254544  0.90211435  0.35988916     0.78570
Cd604      Cd  0.25353160  0.00174181  0.35169465     1.37470
O605        O  0.31270280  0.00291555  0.36612465    -0.56420
O606        O  0.25373903  0.90654250  0.35580393    -0.55230
C607        C  0.22220261  0.60126894  0.35999413     0.78530
O608        O  0.20595018  0.94378914  0.36219273    -0.57600
O609        O  0.27640266  0.00355959  0.40012789    -0.56050
O610        O  0.23135632  0.99947622  0.30377322    -0.56040
O611        O  0.25329016  0.59709237  0.35536058    -0.55220
C612        C  0.33435008  0.00520875  0.41394759     0.04520
C613        C  0.36802279  0.00562025  0.40505561    -0.11630
C614        C  0.39395643  0.00695240  0.42522595     0.02020
C615        C  0.38631040  0.00672364  0.45430637    -0.10160
C616        C  0.35293835  0.00733935  0.46362542     0.04510
C617        C  0.32701322  0.00675746  0.44330116    -0.09580
H618        H  0.37416110  0.00551797  0.38259102     0.10110
H619        H  0.40656274  0.00699051  0.46981001     0.07640
H620        H  0.30119338  0.00783031  0.45040710     0.07480
O621        O  0.14179435  0.75124791  0.30582181    -0.56420
C622        C  0.12173018  0.75339756  0.39289706     0.76200
O623        O  0.22241968  0.69394878  0.36210837    -0.57580
C624        C  0.16796445  0.74902481  0.29065260     0.76180
C625        C  0.20614422  0.85114541  0.35981553     0.78570
Cd626      Cd  0.17461143  0.75131950  0.35184445     1.37470
O627        O  0.11572913  0.75138864  0.36633881    -0.56420
O628        O  0.17496172  0.84663379  0.35547961    -0.55230
C629        C  0.20578016  0.65206226  0.36013117     0.78530
O630        O  0.22264166  0.80951190  0.36226313    -0.57600
O631        O  0.15232059  0.75409183  0.40036161    -0.56050
O632        O  0.19562660  0.74790817  0.30371436    -0.56040
O633        O  0.17448551  0.65611281  0.35638696    -0.55220
C634        C  0.09444766  0.75462761  0.41407456     0.04520
C635        C  0.06075066  0.75372791  0.40503843    -0.11630
C636        C  0.03490814  0.75385295  0.42509376     0.02020
C637        C  0.04260479  0.75387806  0.45414814    -0.10160
C638        C  0.07594683  0.75674656  0.46362777     0.04510
C639        C  0.10185858  0.75718244  0.44345488    -0.09580
H640        H  0.05450701  0.75330891  0.38255132     0.10110
H641        H  0.02236315  0.75321822  0.46951623     0.07640
H642        H  0.12767549  0.75976721  0.45066561     0.07480
C643        C  0.83534652  0.74453170  0.41181165     0.04520
C644        C  0.86785960  0.75379242  0.40170247    -0.11630
C645        C  0.89277572  0.77099787  0.42050803     0.02020
C646        C  0.88437536  0.78280808  0.44868025    -0.10160
C647        C  0.85475509  0.76291266  0.46074652     0.04510
C648        C  0.82984312  0.74408640  0.44154165    -0.09580
H649        H  0.87391100  0.74765133  0.37942840     0.10110
H650        H  0.90304316  0.80224904  0.46181903     0.07640
H651        H  0.80646520  0.72833156  0.44912230     0.07480
O652        O  0.81262451  0.73699195  0.36457588    -0.56420
C653        C  0.75941985  0.73849368  0.28899220     0.76200
O654        O  0.70689491  0.67763773  0.36213264    -0.57580
C655        C  0.80744329  0.73793251  0.39123172     0.76180
C656        C  0.72165130  0.83534032  0.35847201     0.78570
Cd657      Cd  0.75368432  0.73605703  0.35034977     1.37470
O658        O  0.78577334  0.73993349  0.30415134    -0.56420
O659        O  0.75309159  0.83130898  0.35602543    -0.55230
C660        C  0.72320944  0.63612322  0.35796519     0.78530
O661        O  0.70504937  0.79338849  0.35941468    -0.57600
O662        O  0.73197010  0.73522451  0.30208819    -0.56050
O663        O  0.77709516  0.73623864  0.39913250    -0.56040
O664        O  0.75396741  0.64076288  0.35203919    -0.55220
C665        C  0.59333854  0.98901755  0.13381054     0.04520
C666        C  0.60045872  0.98675619  0.10441760    -0.11630
C667        C  0.57441463  0.98712000  0.08418067     0.02020
C668        C  0.54113198  0.98922556  0.09370193    -0.10160
C669        C  0.53364822  0.98899368  0.12281299     0.04510
C670        C  0.55971544  0.98962193  0.14286378    -0.09580
H671        H  0.62621211  0.98444776  0.09723494     0.10110
H672        H  0.52075913  0.98972186  0.07832358     0.07640
H673        H  0.55371770  0.98982250  0.16535561     0.07480
O674        O  0.64247053  0.98790797  0.24194930    -0.56420
C675        C  0.62091856  0.99012270  0.15494949     0.76200
O676        O  0.72146384  0.55069712  0.18343110    -0.57580
C677        C  0.66882361  0.99029086  0.25707979     0.76180
C678        C  0.70671955  0.89317947  0.18803812     0.78570
Cd679      Cd  0.67457015  0.99219620  0.19583122     1.37470
O680        O  0.61531901  0.99247639  0.18152633    -0.56420
O681        O  0.67523777  0.89705188  0.19013668    -0.55230
C682        C  0.70525387  0.59237365  0.18738091     0.78530
O683        O  0.72330749  0.93516561  0.18741186    -0.57600
O684        O  0.65140733  0.98893341  0.14741106    -0.56050
O685        O  0.69622497  0.99428550  0.24398133    -0.56040
O686        O  0.67450695  0.58782422  0.19339183    -0.55220
O687        O  0.31102197  0.99272120  0.18327589    -0.56420
C688        C  0.25843367  0.99847563  0.25922421     0.76200
O689        O  0.20449311  0.55382379  0.18716190    -0.57580
C690        C  0.30496255  0.99397396  0.15673802     0.76180
C691        C  0.22011462  0.89652745  0.19005085     0.78570
Cd692      Cd  0.25205420  0.99627941  0.19798422     1.37470
O693        O  0.28468908  0.99918569  0.24412235    -0.56420
O694        O  0.25141040  0.90086386  0.19382741    -0.55230
C695        C  0.22098719  0.59572633  0.18994400     0.78530
O696        O  0.20366742  0.93829545  0.18803870    -0.57600
O697        O  0.23081921  0.99668697  0.24608266    -0.56050
O698        O  0.27438258  0.49654276  0.14941439    -0.56040
O699        O  0.25213879  0.59168126  0.19448355    -0.55220
C700        C  0.33212317  0.99233124  0.13540150     0.04520
C701        C  0.32465654  0.99690465  0.10614375    -0.11630
C702        C  0.35042248  0.99533519  0.08589445     0.02020
C703        C  0.38354754  0.98828755  0.09493379    -0.10160
C704        C  0.39143859  0.98497527  0.12386087     0.04510
C705        C  0.36577477  0.98688766  0.14413618    -0.09580
H706        H  0.29902576  0.00263387  0.09910475     0.10110
H707        H  0.40355890  0.98725699  0.07934153     0.07640
H708        H  0.37211763  0.98442449  0.16653910     0.07480
O709        O  0.14099348  0.75018646  0.24458298    -0.56420
C710        C  0.11962269  0.74100658  0.15680296     0.76200
O711        O  0.22003599  0.80385892  0.18722077    -0.57580
C712        C  0.16752929  0.74779828  0.25944757     0.76180
C713        C  0.20448843  0.64647071  0.19003636     0.78570
Cd714      Cd  0.17266361  0.74571454  0.19822195     1.37470
O715        O  0.11356882  0.73800375  0.18325068    -0.56420
O716        O  0.17326314  0.65041789  0.19399181    -0.55230
C717        C  0.20359347  0.84558281  0.19008468     0.78530
O718        O  0.22091264  0.68843288  0.18798767    -0.57600
O719        O  0.15006368  0.74685899  0.14981448    -0.56050
O720        O  0.19479259  0.74437784  0.24607253    -0.56040
O721        O  0.17250750  0.84118413  0.19478815    -0.55220
C722        C  0.09272938  0.73755388  0.13508972     0.04520
C723        C  0.10013099  0.74677367  0.10629105    -0.11630
C724        C  0.07491594  0.74323363  0.08548717     0.02020
C725        C  0.04220369  0.73016998  0.09349775    -0.10160
C726        C  0.03430614  0.72112913  0.12204283     0.04510
C727        C  0.05962617  0.72487324  0.14285137    -0.09580
H728        H  0.12538694  0.75712073  0.09997688     0.10110
H729        H  0.02260784  0.72779611  0.07742454     0.07640
H730        H  0.05344845  0.71801919  0.16493662     0.07480
C731        C  0.83510536  0.73663703  0.13485031     0.04520
C732        C  0.82985888  0.74920704  0.10597450    -0.11630
C733        C  0.85417540  0.73675172  0.08520470     0.02020
C734        C  0.88354319  0.71171317  0.09450575    -0.10160
C735        C  0.89165905  0.70850308  0.12340849     0.04510
C736        C  0.86673802  0.71869518  0.14358246    -0.09580
H737        H  0.80716561  0.76934261  0.10020196     0.10110
H738        H  0.90200870  0.69885772  0.07915197     0.07640
H739        H  0.87224988  0.71338362  0.16596973     0.07480
O740        O  0.81293924  0.73672625  0.18233700    -0.56420
C741        C  0.75946134  0.74051065  0.25777250     0.76200
O742        O  0.70703791  0.80063957  0.18402303    -0.57580
C743        C  0.80766862  0.74124203  0.15581240     0.76180
C744        C  0.72175647  0.64337459  0.18726036     0.78570
Cd745      Cd  0.75391914  0.74280968  0.19636158     1.37470
O746        O  0.78585672  0.74367552  0.24295055    -0.56420
O747        O  0.75324255  0.64763771  0.18952698    -0.55230
C748        C  0.72319726  0.84245534  0.18840139     0.78530
O749        O  0.70518389  0.68520655  0.18687432    -0.57600
O750        O  0.73203779  0.73915905  0.24432995    -0.56050
O751        O  0.77748260  0.74771695  0.14811606    -0.56040
O752        O  0.75387950  0.83830185  0.19487018    -0.55220
C753        C  0.92782343  0.70345495  0.13136978    -0.03950
C754        C  0.94698623  0.66195746  0.12003190    -0.01060
C755        C  0.98225514  0.66594217  0.11882300     0.03930
C756        C  0.99869784  0.71084046  0.12961930    -0.03950
C757        C  0.97992985  0.74948481  0.14395650    -0.01050
C758        C  0.94460525  0.74603762  0.14470842     0.03920
C759        C  0.93021789  0.61630250  0.10825236     0.38570
C760        C  0.99675072  0.79504409  0.15584652     0.38560
C761        C  0.92563503  0.78882739  0.15697166     0.36990
C762        C  0.00158995  0.62497679  0.10518781     0.36990
N763        N  0.91058346  0.82301466  0.16677380    -0.37830
N764        N  0.01706450  0.59250469  0.09417643    -0.37830
N765        N  0.01022006  0.83132056  0.16532263    -0.37280
N766        N  0.91678436  0.58002180  0.09874725    -0.37280
C767        C  0.49799130  0.98515068  0.13147687    -0.03950
C768        C  0.47994446  0.53013333  0.13933610    -0.01060
C769        C  0.44455969  0.52870542  0.13993043     0.03930
C770        C  0.42732668  0.98259193  0.13207422    -0.03950
C771        C  0.44550458  0.93646556  0.12705115    -0.01050
C772        C  0.48080902  0.93755332  0.12744635     0.03920
C773        C  0.49770658  0.57832762  0.14537474     0.38570
C774        C  0.42785791  0.88858334  0.11992747     0.38560
C775        C  0.49958715  0.88993580  0.12319657     0.36990
C776        C  0.42580647  0.57541219  0.14675524     0.36990
N777        N  0.51459430  0.85182412  0.12030192    -0.37830
N778        N  0.41069677  0.61250289  0.15229193    -0.37830
N779        N  0.41376737  0.85047120  0.11407520    -0.37280
N780        N  0.51189657  0.61675942  0.15029834    -0.37280
C781        C  0.85235315  0.75884333  0.49300413    -0.03950
C782        C  0.88214899  0.75417677  0.00951952    -0.01060
C783        C  0.88119589  0.76211304  0.03897286     0.03930
C784        C  0.85142531  0.75120117  0.05406021    -0.03950
C785        C  0.82103174  0.75004637  0.03803577    -0.01050
C786        C  0.82149465  0.76037021  0.00828466     0.03920
C787        C  0.91342699  0.73496578  0.49766131     0.38570
C788        C  0.78936283  0.73705263  0.05122327     0.38320
C789        C  0.79028509  0.77374006  0.49432364     0.36990
C790        C  0.91099879  0.78260693  0.05320725     0.36990
N791        N  0.76518654  0.78471963  0.48352423    -0.37830
N792        N  0.93471340  0.79910600  0.06446985    -0.37830
N793        N  0.76386189  0.72654422  0.06139298    -0.37280
N794        N  0.93843592  0.71931193  0.48856504    -0.37280
C795        C  0.08268920  0.76009594  0.49490530    -0.03950
C796        C  0.10188665  0.72165532  0.00870629    -0.01060
C797        C  0.10174173  0.71872195  0.03874335     0.03930
C798        C  0.08195269  0.75350487  0.05499213    -0.03950
C799        C  0.06574317  0.79510502  0.04140399    -0.01050
C800        C  0.06649790  0.79882202  0.01152230     0.03920
C801        C  0.12024115  0.68325218  0.49214216     0.38570
C802        C  0.04749844  0.83339486  0.05819343     0.38560
C803        C  0.04990740  0.84199264  0.49779557     0.36990
C804        C  0.12053074  0.67822388  0.05281086     0.36990
N805        N  0.03659909  0.87624443  0.48678802    -0.37830
N806        N  0.13571433  0.64619375  0.06408738    -0.37830
N807        N  0.03285258  0.86378136  0.07159177    -0.37280
N808        N  0.13509383  0.65272997  0.47900423    -0.37280
C809        C  0.99924149  0.75685184  0.41639975    -0.03950
C810        C  0.98437958  0.80592576  0.41230486    -0.01060
C811        C  0.94917587  0.81043616  0.41096764     0.03930
C812        C  0.92883957  0.76586260  0.41347098    -0.03950
C813        C  0.94388779  0.71623933  0.41518079    -0.01050
C814        C  0.97904389  0.71182489  0.41676546     0.03920
C815        C  0.00529427  0.85209073  0.41136282     0.38570
C816        C  0.92313115  0.67007482  0.41781040     0.38560
C817        C  0.99440728  0.66132516  0.42055229     0.36990
C818        C  0.93372817  0.86109030  0.40854908     0.36990
N819        N  0.00668729  0.62110155  0.42366235    -0.37830
N820        N  0.92130095  0.90147243  0.40665268    -0.37830
N821        N  0.90655584  0.63334041  0.42002876    -0.37280
N822        N  0.02211393  0.88879643  0.41065561    -0.37280
C823        C  0.34591524  0.00947740  0.49487077    -0.03950
C824        C  0.36023641  0.54967196  0.01189834    -0.01060
C825        C  0.35943863  0.54682784  0.04180161     0.03930
C826        C  0.34405264  0.00406307  0.05507158    -0.03950
C827        C  0.32645216  0.96695932  0.03827816    -0.01050
C828        C  0.32754325  0.96941145  0.00820423     0.03920
C829        C  0.37635655  0.59386038  0.49876258     0.38570
C830        C  0.30858078  0.92491773  0.05188208     0.38560
C831        C  0.31128589  0.92908148  0.49115759     0.36990
C832        C  0.37531050  0.58740182  0.05904040     0.36990
N833        N  0.29812905  0.89700830  0.47759989    -0.37830
N834        N  0.38808794  0.61950377  0.07283736    -0.37830
N835        N  0.29409593  0.89161694  0.06275853    -0.37280
N836        N  0.38937622  0.62936078  0.48869369    -0.37280
C837        C  0.58298620  0.98927730  0.49259127    -0.03950
C838        C  0.60226309  0.52447189  0.00926710    -0.01060
C839        C  0.60116804  0.52231177  0.03936247     0.03930
C840        C  0.58116037  0.98427733  0.05285013    -0.03950
C841        C  0.56510402  0.94555340  0.03587480    -0.01050
C842        C  0.56586166  0.94825152  0.00597213     0.03920
C843        C  0.62202966  0.56427027  0.49551719     0.38570
C844        C  0.54722318  0.90299896  0.04899793     0.38560
C845        C  0.54818093  0.90933616  0.48883962     0.36990
C846        C  0.61923508  0.56098569  0.05623717     0.36990
N847        N  0.53394432  0.87862456  0.47512689    -0.37830
N848        N  0.63386980  0.59170288  0.06963934    -0.37830
N849        N  0.53268504  0.86878610  0.05891646    -0.37280
N850        N  0.63804904  0.59572314  0.48453106    -0.37280
C851        C  0.42963497  0.01048627  0.41663864    -0.03950
C852        C  0.44700260  0.55796589  0.42048787    -0.01060
C853        C  0.48231634  0.55879805  0.42050715     0.03930
C854        C  0.50028733  0.01244650  0.41555055    -0.03950
C855        C  0.48282270  0.96635701  0.40803194    -0.01050
C856        C  0.44745908  0.96525969  0.40883083     0.03920
C857        C  0.42842979  0.60570031  0.42501340     0.38570
C858        C  0.50131876  0.91927081  0.40146823     0.38560
C859        C  0.42950714  0.91707472  0.40318380     0.36990
C860        C  0.50021226  0.60669765  0.42709206     0.36990
N861        N  0.41517696  0.87863640  0.39860349    -0.37830
N862        N  0.51449187  0.64485965  0.43247206    -0.37830
N863        N  0.51622640  0.88187360  0.39616678    -0.37280
N864        N  0.41360117  0.64391435  0.42817599    -0.37280
C865        C  0.59508176  0.49686368  0.91213110     0.04520
C866        C  0.56162979  0.50441346  0.90338879    -0.11630
C867        C  0.53617971  0.00966835  0.92369376     0.02020
C868        C  0.54412812  0.00776181  0.95265942    -0.10160
C869        C  0.57697245  0.99825454  0.96173527     0.04510
C870        C  0.60253839  0.49338261  0.94144514    -0.09580
H871        H  0.55524131  0.50571939  0.88095475     0.10110
H872        H  0.52423349  0.01104351  0.96827961     0.07640
H873        H  0.62794091  0.48571421  0.94849666     0.07480
O874        O  0.61586233  0.99158858  0.86420793    -0.56420
C875        C  0.66887115  0.98844799  0.78827334     0.76200
O876        O  0.72345591  0.54343358  0.85862737    -0.57580
C877        C  0.62203765  0.99208354  0.89075632     0.76180
C878        C  0.70524036  0.88619684  0.85806920     0.78570
Cd879      Cd  0.67475225  0.98614398  0.84953583     1.37470
O880        O  0.64257753  0.98400116  0.80312916    -0.56420
O881        O  0.67436281  0.89047771  0.85233623    -0.55230
C882        C  0.70682017  0.58520494  0.85790382     0.78530
O883        O  0.72165695  0.92800177  0.86158144    -0.57600
O884        O  0.69631114  0.99115039  0.80164482    -0.56050
O885        O  0.65258127  0.48876321  0.89806691    -0.56040
O886        O  0.67536914  0.58100172  0.85529490    -0.55220
O887        O  0.28528305  0.00094737  0.80534993    -0.56420
C888        C  0.30692967  0.00385443  0.89269191     0.76200
O889        O  0.20576961  0.55944842  0.86264442    -0.57580
C890        C  0.25873018  0.99967901  0.79043795     0.76180
C891        C  0.22254543  0.90211435  0.85988916     0.78570
Cd892      Cd  0.25353160  0.00174181  0.85169465     1.37470
O893        O  0.31270280  0.00291553  0.86612465    -0.56420
O894        O  0.25373902  0.90654249  0.85580392    -0.55230
C895        C  0.22220260  0.60126893  0.85999412     0.78530
O896        O  0.20595018  0.94378914  0.86219273    -0.57600
O897        O  0.27640265  0.00355959  0.90012789    -0.56050
O898        O  0.23135632  0.99947622  0.80377322    -0.56040
O899        O  0.25329014  0.59709237  0.85536057    -0.55220
C900        C  0.33435007  0.00520874  0.91394759     0.04520
C901        C  0.36802278  0.00562025  0.90505561    -0.11630
C902        C  0.39395643  0.00695240  0.92522595     0.02020
C903        C  0.38631039  0.00672364  0.95430637    -0.10160
C904        C  0.35293834  0.00733935  0.96362542     0.04510
C905        C  0.32701322  0.00675746  0.94330116    -0.09580
H906        H  0.37416109  0.00551796  0.88259102     0.10110
H907        H  0.40656273  0.00699051  0.96981001     0.07640
H908        H  0.30119337  0.00783031  0.95040710     0.07480
O909        O  0.14179433  0.75124794  0.80582181    -0.56420
C910        C  0.12173016  0.75339756  0.89289706     0.76200
O911        O  0.22241966  0.69394878  0.86210837    -0.57580
C912        C  0.16796443  0.74902483  0.79065260     0.76180
C913        C  0.20614421  0.85114541  0.85981553     0.78570
Cd914      Cd  0.17461142  0.75131950  0.85184445     1.37470
O915        O  0.11572911  0.75138864  0.86633881    -0.56420
O916        O  0.17496171  0.84663379  0.85547962    -0.55230
C917        C  0.20578015  0.65206225  0.86013117     0.78530
O918        O  0.22264165  0.80951189  0.86226313    -0.57600
O919        O  0.15232057  0.75409184  0.90036161    -0.56050
O920        O  0.19562658  0.74790817  0.80371437    -0.56040
O921        O  0.17448549  0.65611281  0.85638694    -0.55220
C922        C  0.09444764  0.75462762  0.91407456     0.04520
C923        C  0.06075065  0.75372792  0.90503843    -0.11630
C924        C  0.03490812  0.75385296  0.92509377     0.02020
C925        C  0.04260478  0.75387807  0.95414814    -0.10160
C926        C  0.07594681  0.75674657  0.96362777     0.04510
C927        C  0.10185856  0.75718245  0.94345488    -0.09580
H928        H  0.05450699  0.75330892  0.88255132     0.10110
H929        H  0.02236314  0.75321824  0.96951623     0.07640
H930        H  0.12767548  0.75976722  0.95066562     0.07480
C931        C  0.83534651  0.74453168  0.91181165     0.04520
C932        C  0.86785958  0.75379240  0.90170247    -0.11630
C933        C  0.89277570  0.77099785  0.92050803     0.02020
C934        C  0.88437534  0.78280806  0.94868025    -0.10160
C935        C  0.85475507  0.76291264  0.96074652     0.04510
C936        C  0.82984311  0.74408637  0.94154165    -0.09580
H937        H  0.87391098  0.74765132  0.87942840     0.10110
H938        H  0.90304314  0.80224902  0.96181903     0.07640
H939        H  0.80646519  0.72833154  0.94912230     0.07480
O940        O  0.81262450  0.73699192  0.86457588    -0.56420
C941        C  0.75941983  0.73849366  0.78899220     0.76200
O942        O  0.70689488  0.67763772  0.86213264    -0.57580
C943        C  0.80744327  0.73793248  0.89123172     0.76180
C944        C  0.72165129  0.83534031  0.85847202     0.78570
Cd945      Cd  0.75368430  0.73605701  0.85034977     1.37470
O946        O  0.78577332  0.73993346  0.80415134    -0.56420
O947        O  0.75309158  0.83130897  0.85602544    -0.55230
C948        C  0.72320941  0.63612321  0.85796519     0.78530
O949        O  0.70504936  0.79338848  0.85941468    -0.57600
O950        O  0.73197008  0.73522451  0.80208819    -0.56050
O951        O  0.77709514  0.73623862  0.89913250    -0.56040
O952        O  0.75396738  0.64076286  0.85203919    -0.55220
C953        C  0.59333855  0.98901755  0.63381054     0.04520
C954        C  0.60045874  0.98675619  0.60441761    -0.11630
C955        C  0.57441465  0.98712000  0.58418067     0.02020
C956        C  0.54113199  0.98922555  0.59370193    -0.10160
C957        C  0.53364824  0.98899367  0.62281299     0.04510
C958        C  0.55971545  0.98962193  0.64286378    -0.09580
H959        H  0.62621212  0.98444776  0.59723495     0.10110
H960        H  0.52075915  0.98972185  0.57832358     0.07640
H961        H  0.55371772  0.98982250  0.66535561     0.07480
O962        O  0.64247054  0.98790798  0.74194930    -0.56420
C963        C  0.62091857  0.99012270  0.65494949     0.76200
O964        O  0.72146383  0.55069711  0.68343110    -0.57580
C965        C  0.66882362  0.99029087  0.75707979     0.76180
C966        C  0.70671956  0.89317947  0.68803812     0.78570
Cd967      Cd  0.67457016  0.99219620  0.69583123     1.37470
O968        O  0.61531902  0.99247639  0.68152633    -0.56420
O969        O  0.67523778  0.89705188  0.69013668    -0.55230
C970        C  0.70525386  0.59237365  0.68738091     0.78530
O971        O  0.72330750  0.93516560  0.68741186    -0.57600
O972        O  0.65140735  0.98893341  0.64741106    -0.56050
O973        O  0.69622498  0.99428550  0.74398134    -0.56040
O974        O  0.67450694  0.58782422  0.69339182    -0.55220
O975        O  0.31102198  0.99272122  0.68327590    -0.56420
C976        C  0.25843367  0.99847564  0.75922421     0.76200
O977        O  0.20449309  0.55382383  0.68716188    -0.57580
C978        C  0.30496256  0.99397397  0.65673802     0.76180
C979        C  0.22011462  0.89652748  0.69005085     0.78570
Cd980      Cd  0.25205421  0.99627943  0.69798422     1.37470
O981        O  0.28468908  0.99918570  0.74412235    -0.56420
O982        O  0.25141039  0.90086388  0.69382741    -0.55230
C983        C  0.22098718  0.59572637  0.68994399     0.78530
O984        O  0.20366742  0.93829548  0.68803870    -0.57600
O985        O  0.23081921  0.99668699  0.74608265    -0.56050
O986        O  0.27438256  0.49654278  0.64941437    -0.56040
O987        O  0.25213877  0.59168129  0.69448354    -0.55220
C988        C  0.33212318  0.99233124  0.63540150     0.04520
C989        C  0.32465655  0.99690465  0.60614375    -0.11630
C990        C  0.35042249  0.99533518  0.58589445     0.02020
C991        C  0.38354755  0.98828755  0.59493379    -0.10160
C992        C  0.39143861  0.98497527  0.62386088     0.04510
C993        C  0.36577478  0.98688766  0.64413618    -0.09580
H994        H  0.29902577  0.00263387  0.59910475     0.10110
H995        H  0.40355892  0.98725698  0.57934153     0.07640
H996        H  0.37211764  0.98442450  0.66653910     0.07480
O997        O  0.14099346  0.75018651  0.74458298    -0.56420
C998        C  0.11962268  0.74100660  0.65680296     0.76200
O999        O  0.22003598  0.80385895  0.68722077    -0.57580
C1000       C  0.16752928  0.74779831  0.75944757     0.76180
C1001       C  0.20448842  0.64647076  0.69003636     0.78570
Cd1002     Cd  0.17266359  0.74571458  0.69822195     1.37470
O1003       O  0.11356881  0.73800378  0.68325068    -0.56420
O1004       O  0.17326312  0.65041793  0.69399180    -0.55230
C1005       C  0.20359346  0.84558285  0.69008468     0.78530
O1006       O  0.22091263  0.68843292  0.68798766    -0.57600
O1007       O  0.15006367  0.74685903  0.64981448    -0.56050
O1008       O  0.19479258  0.74437786  0.74607254    -0.56040
O1009       O  0.17250749  0.84118417  0.69478814    -0.55220
C1010       C  0.09272937  0.73755389  0.63508972     0.04520
C1011       C  0.10013099  0.74677367  0.60629105    -0.11630
C1012       C  0.07491594  0.74323363  0.58548716     0.02020
C1013       C  0.04220369  0.73016997  0.59349774    -0.10160
C1014       C  0.03430613  0.72112913  0.62204282     0.04510
C1015       C  0.05962616  0.72487325  0.64285137    -0.09580
H1016       H  0.12538694  0.75712074  0.59997688     0.10110
H1017       H  0.02260784  0.72779609  0.57742453     0.07640
H1018       H  0.05344844  0.71801921  0.66493662     0.07480
C1019       C  0.83510536  0.73663702  0.63485031     0.04520
C1020       C  0.82985888  0.74920703  0.60597450    -0.11630
C1021       C  0.85417540  0.73675172  0.58520470     0.02020
C1022       C  0.88354319  0.71171317  0.59450575    -0.10160
C1023       C  0.89165904  0.70850307  0.62340849     0.04510
C1024       C  0.86673801  0.71869516  0.64358246    -0.09580
H1025       H  0.80716561  0.76934260  0.60020196     0.10110
H1026       H  0.90200870  0.69885773  0.57915197     0.07640
H1027       H  0.87224988  0.71338360  0.66596972     0.07480
O1028       O  0.81293923  0.73672623  0.68233700    -0.56420
C1029       C  0.75946133  0.74051063  0.75777250     0.76200
O1030       O  0.70703791  0.80063957  0.68402302    -0.57580
C1031       C  0.80766862  0.74124202  0.65581240     0.76180
C1032       C  0.72175646  0.64337459  0.68726036     0.78570
Cd1033     Cd  0.75391914  0.74280967  0.69636158     1.37470
O1034       O  0.78585672  0.74367549  0.74295055    -0.56420
O1035       O  0.75324254  0.64763770  0.68952698    -0.55230
C1036       C  0.72319726  0.84245533  0.68840139     0.78530
O1037       O  0.70518388  0.68520655  0.68687432    -0.57600
O1038       O  0.73203778  0.73915904  0.74432995    -0.56050
O1039       O  0.77748259  0.74771694  0.64811606    -0.56040
O1040       O  0.75387951  0.83830184  0.69487018    -0.55220
C1041       C  0.92782342  0.70345494  0.63136978    -0.03950
C1042       C  0.94698622  0.66195744  0.62003190    -0.01060
C1043       C  0.98225514  0.66594216  0.61882299     0.03930
C1044       C  0.99869783  0.71084045  0.62961929    -0.03950
C1045       C  0.97992985  0.74948480  0.64395649    -0.01050
C1046       C  0.94460525  0.74603761  0.64470842     0.03920
C1047       C  0.93021789  0.61630249  0.60825235     0.38570
C1048       C  0.99675072  0.79504408  0.65584652     0.38560
C1049       C  0.92563502  0.78882737  0.65697166     0.36990
C1050       C  0.00158995  0.62497678  0.60518779     0.36990
N1051       N  0.91058345  0.82301464  0.66677380    -0.37830
N1052       N  0.01706450  0.59250469  0.59417642    -0.37830
N1053       N  0.01022005  0.83132055  0.66532263    -0.37280
N1054       N  0.91678435  0.58002180  0.59874724    -0.37280
C1055       C  0.49799131  0.98515068  0.63147687    -0.03950
C1056       C  0.47994443  0.53013327  0.63933609    -0.01060
C1057       C  0.44455966  0.52870533  0.63993043     0.03930
C1058       C  0.42732670  0.98259193  0.63207422    -0.03950
C1059       C  0.44550459  0.93646556  0.62705116    -0.01050
C1060       C  0.48080903  0.93755332  0.62744636     0.03920
C1061       C  0.49770654  0.57832759  0.64537470     0.38570
C1062       C  0.42785792  0.88858333  0.61992748     0.38560
C1063       C  0.49958716  0.88993580  0.62319657     0.36990
C1064       C  0.42580643  0.57541210  0.64675523     0.36990
N1065       N  0.51459431  0.85182412  0.62030193    -0.37830
N1066       N  0.41069672  0.61250279  0.65229190    -0.37830
N1067       N  0.41376739  0.85047120  0.61407522    -0.37280
N1068       N  0.51189652  0.61675942  0.65029829    -0.37280
C1069       C  0.85235314  0.75884330  0.99300412    -0.03950
C1070       C  0.88214900  0.75417681  0.50951952    -0.01060
C1071       C  0.88119589  0.76211307  0.53897286     0.03930
C1072       C  0.85142531  0.75120118  0.55406021    -0.03950
C1073       C  0.82103174  0.75004639  0.53803577    -0.01050
C1074       C  0.82149466  0.76037023  0.50828466     0.03920
C1075       C  0.91342697  0.73496574  0.99766130     0.38570
C1076       C  0.78936284  0.73705264  0.55122326     0.38320
C1077       C  0.79028507  0.77374003  0.99432365     0.36990
C1078       C  0.91099879  0.78260696  0.55320726     0.36990
N1079       N  0.76518653  0.78471960  0.98352424    -0.37830
N1080       N  0.93471339  0.79910602  0.56446987    -0.37830
N1081       N  0.76386189  0.72654423  0.56139296    -0.37280
N1082       N  0.93843590  0.71931189  0.98856502    -0.37280
C1083       C  0.08268919  0.76009595  0.99490531    -0.03950
C1084       C  0.10188666  0.72165531  0.50870629    -0.01060
C1085       C  0.10174173  0.71872194  0.53874335     0.03930
C1086       C  0.08195269  0.75350487  0.55499212    -0.03950
C1087       C  0.06574317  0.79510501  0.54140398    -0.01050
C1088       C  0.06649791  0.79882201  0.51152229     0.03920
C1089       C  0.12024114  0.68325219  0.99214215     0.38570
C1090       C  0.04749844  0.83339485  0.55819342     0.38560
C1091       C  0.04990738  0.84199265  0.99779557     0.36990
C1092       C  0.12053075  0.67822387  0.55281086     0.36990
N1093       N  0.03659908  0.87624444  0.98678803    -0.37830
N1094       N  0.13571434  0.64619375  0.56408739    -0.37830
N1095       N  0.03285257  0.86378135  0.57159176    -0.37280
N1096       N  0.13509382  0.65272997  0.97900423    -0.37280
C1097       C  0.99924148  0.75685185  0.91639976    -0.03950
C1098       C  0.98437956  0.80592576  0.91230486    -0.01060
C1099       C  0.94917585  0.81043617  0.91096765     0.03930
C1100       C  0.92883955  0.76586259  0.91347097    -0.03950
C1101       C  0.94388777  0.71623933  0.91518079    -0.01050
C1102       C  0.97904388  0.71182489  0.91676545     0.03920
C1103       C  0.00529425  0.85209074  0.91136283     0.38570
C1104       C  0.92313115  0.67007482  0.91781039     0.38560
C1105       C  0.99440727  0.66132517  0.92055228     0.36990
C1106       C  0.93372814  0.86109030  0.90854909     0.36990
N1107       N  0.00668728  0.62110156  0.92366233    -0.37830
N1108       N  0.92130093  0.90147243  0.90665269    -0.37830
N1109       N  0.90655584  0.63334039  0.92002874    -0.37280
N1110       N  0.02211390  0.88879644  0.91065563    -0.37280
C1111       C  0.34591523  0.00947740  0.99487077    -0.03950
C1112       C  0.36023661  0.54967176  0.51189834    -0.01060
C1113       C  0.35943880  0.54682766  0.54180161     0.03930
C1114       C  0.34405266  0.00406307  0.55507158    -0.03950
C1115       C  0.32645217  0.96695932  0.53827816    -0.01050
C1116       C  0.32754326  0.96941145  0.50820423     0.03920
C1117       C  0.37635621  0.59386067  0.99876256     0.38570
C1118       C  0.30858080  0.92491772  0.55188208     0.38560
C1119       C  0.31128588  0.92908148  0.99115759     0.36990
C1120       C  0.37531074  0.58740156  0.55904040     0.36990
N1121       N  0.29812904  0.89700830  0.97759989    -0.37830
N1122       N  0.38808825  0.61950344  0.57283736    -0.37830
N1123       N  0.29409595  0.89161693  0.56275853    -0.37280
N1124       N  0.38937576  0.62936115  0.98869364    -0.37280
C1125       C  0.58298619  0.98927731  0.99259127    -0.03950
C1126       C  0.60226309  0.52447188  0.50926710    -0.01060
C1127       C  0.60116804  0.52231176  0.53936246     0.03930
C1128       C  0.58116038  0.98427733  0.55285013    -0.03950
C1129       C  0.56510403  0.94555339  0.53587480    -0.01050
C1130       C  0.56586168  0.94825151  0.50597213     0.03920
C1131       C  0.62202964  0.56427028  0.99551718     0.38570
C1132       C  0.54722320  0.90299895  0.54899793     0.38560
C1133       C  0.54818092  0.90933617  0.98883962     0.36990
C1134       C  0.61923508  0.56098567  0.55623717     0.36990
N1135       N  0.53394431  0.87862456  0.97512688    -0.37830
N1136       N  0.63386980  0.59170285  0.56963934    -0.37830
N1137       N  0.53268506  0.86878609  0.55891647    -0.37280
N1138       N  0.63804901  0.59572317  0.98453105    -0.37280
C1139       C  0.42963496  0.01048627  0.91663863    -0.03950
C1140       C  0.44700258  0.55796590  0.92048787    -0.01060
C1141       C  0.48231632  0.55879803  0.92050712     0.03930
C1142       C  0.50028733  0.01244650  0.91555054    -0.03950
C1143       C  0.48282270  0.96635701  0.90803193    -0.01050
C1144       C  0.44745907  0.96525969  0.90883083     0.03920
C1145       C  0.42842979  0.60570034  0.92501338     0.38570
C1146       C  0.50131876  0.91927081  0.90146822     0.38560
C1147       C  0.42950713  0.91707472  0.90318380     0.36990
C1148       C  0.50021226  0.60669765  0.92709193     0.36990
N1149       N  0.41517696  0.87863640  0.89860349    -0.37830
N1150       N  0.51449189  0.64485967  0.93247184    -0.37830
N1151       N  0.51622640  0.88187360  0.89616676    -0.37280
N1152       N  0.41360118  0.64391441  0.92817597    -0.37280
loop_ 
_geom_bond_atom_site_label_1 
_geom_bond_atom_site_label_2 
_geom_bond_distance 
_geom_bond_site_symmetry_2 
_ccdc_geom_bond_type 
C1            C2   1.409   1_565  A
C1            C6   1.410       .  A
C1          C589   1.477       .  S
C2          C579   1.400       .  A
C2            H7   1.083       .  S
C3            C4   1.396       .  A
C3          C578   1.400       .  A
C3          C278   1.482       .  S
C4            C5   1.399       .  A
C4            H8   1.085       .  S
C5          C582   1.402       .  A
C5          C261   1.488       .  S
C6          C581   1.402       .  A
C6            H9   1.084       .  S
O10          C13   1.269       .  A
O10         Cd15   2.453       .  S
C11         C101   1.465       .  S
C11          O20   1.260       .  A
C11          O16   1.267       .  A
O12          C18   1.266       .  A
O12        Cd591   2.466   1_545  S
C13         C577   1.477       .  S
C13         O597   1.267       .  A
C14          C80   1.465       .  S
C14          O19   1.265       .  A
C14          O17   1.265       .  A
Cd15         O20   2.414       .  S
Cd15         O16   2.523       .  S
Cd15         O19   2.468       .  S
Cd15         O17   2.467       .  S
Cd15        O588   2.466       .  S
Cd15        O598   2.451       .  S
Cd15        O597   2.446       .  S
C18          C84   1.462       .  S
C18          O22   1.264       .  A
O21         C589   1.267       .  A
O21        Cd591   2.446       .  S
O22        Cd591   2.451   1_545  S
O23          C26   1.267       .  A
O23         Cd28   2.521       .  S
C24          C36   1.477       .  S
C24          O33   1.268       .  A
C24          O29   1.269       .  A
O25          C31   1.266       .  A
O25        Cd604   2.470       .  S
C26         C112   1.465       .  S
C26          O34   1.260       .  A
C27          C49   1.463       .  S
C27          O32   1.266       .  A
C27          O30   1.264       .  A
Cd28         O34   2.413       .  S
Cd28         O33   2.445       .  S
Cd28         O29   2.452       .  S
Cd28         O32   2.464       .  S
Cd28         O30   2.460       .  S
Cd28        O601   2.470       .  S
Cd28        O611   2.457       .  S
C31          C53   1.464       .  S
C31          O35   1.264       .  A
O35        Cd604   2.457       .  S
C36          C37   1.408       .  A
C36          C41   1.409       .  A
C37          C38   1.399       .  A
C37          H42   1.083       .  S
C38          C39   1.399       .  A
C38         C275   1.483       .  S
C39          C40   1.402       .  A
C39          H43   1.085       .  S
C40          C41   1.404       .  A
C40         C247   1.494       .  S
C41          H44   1.084       .  S
O45          C48   1.266       .  A
O45         Cd50   2.521       .  S
C46          C58   1.476       .  S
C46          O55   1.268       .  A
C46          O51   1.268       .  A
O47          C53   1.265       .  A
O47         Cd50   2.465       .  S
C48         C136   1.464       .  S
C48          O56   1.260       .  A
C49          O54   1.265       .  A
C49          O52   1.264       .  A
Cd50         O57   2.462       .  S
Cd50         O56   2.413       .  S
Cd50         O55   2.447       .  S
Cd50         O51   2.447       .  S
Cd50         O54   2.469       .  S
Cd50         O52   2.456       .  S
C53          O57   1.264       .  A
C58          C59   1.407       .  A
C58          C63   1.409       .  A
C59          C60   1.398       .  A
C59          H64   1.083       .  S
C60          C61   1.396       .  A
C60         C233   1.481   1_455  S
C61          C62   1.402       .  A
C61          H65   1.085       .  S
C62          C63   1.404       .  A
C62         C219   1.492       .  S
C63          H66   1.084       .  S
C67          C68   1.403       .  A
C67          C72   1.413       .  A
C67          C79   1.478       .  S
C68          C69   1.393       .  A
C68          H73   1.083       .  S
C69          C70   1.394       .  A
C69         C236   1.483       .  S
C70          C71   1.410       .  A
C70          H74   1.081       .  S
C71          C72   1.418       .  A
C71         C205   1.522       .  S
C72          H75   1.079       .  S
O76          C79   1.268       .  A
O76         Cd81   2.440       .  S
C77         C165   1.467       .  S
C77          O86   1.260       .  A
C77          O82   1.267       .  A
O78          C84   1.266       .  A
O78         Cd81   2.461       .  S
C79          O87   1.268       .  A
C80          O85   1.265       .  A
C80          O83   1.264       .  A
Cd81         O88   2.454       .  S
Cd81         O87   2.469       .  S
Cd81         O86   2.421       .  S
Cd81         O82   2.525       .  S
Cd81         O85   2.475       .  S
Cd81         O83   2.461       .  S
C84          O88   1.264       .  A
C89          C90   1.410       .  A
C89          C94   1.408       .  A
C89          C99   1.478       .  S
C90          C91   1.405       .  A
C90          H95   1.084       .  S
C91          C92   1.403       .  A
C91         C264   1.496       .  S
C92          C93   1.399       .  A
C92          H96   1.085       .  S
C93          C94   1.399       .  A
C93         C191   1.484       .  S
C94          H97   1.083       .  S
O98         C101   1.267       .  A
O98        Cd103   2.522       .  S
C99         O108   1.268       .  A
C99         O104   1.268       .  A
O100        C106   1.266       .  A
O100       Cd679   2.472   1_545  S
C101        O109   1.260       .  A
C102        C172   1.464       .  S
C102        O107   1.265       .  A
C102        O105   1.264       .  A
Cd103       O109   2.415       .  S
Cd103       O108   2.449       .  S
Cd103       O104   2.454       .  S
Cd103       O107   2.469       .  S
Cd103       O105   2.459       .  S
Cd103       O676   2.472       .  S
Cd103       O686   2.465       .  S
C106        C168   1.466       .  S
C106        O110   1.264       .  A
O110       Cd679   2.465   1_545  S
O111        C114   1.268       .  A
O111       Cd116   2.455       .  S
C112        O121   1.260       .  A
C112        O117   1.267       .  A
O113        C119   1.266       .  A
O113       Cd692   2.466   1_545  S
C114        C124   1.478       .  S
C114        O698   1.268       .  A
C115        C141   1.465       .  S
C115        O120   1.265       .  A
C115        O118   1.264       .  A
Cd116       O121   2.414       .  S
Cd116       O117   2.522       .  S
Cd116       O120   2.473       .  S
Cd116       O118   2.460       .  S
Cd116       O689   2.466       .  S
Cd116       O699   2.462       .  S
Cd116       O698   2.450       .  S
C119        C137   1.464       .  S
C119        O123   1.264       .  A
O122        C690   1.268       .  A
O122       Cd692   2.450       .  S
O123       Cd692   2.462   1_545  S
C124        C125   1.410       .  A
C124        C129   1.409       .  A
C125        C126   1.402       .  A
C125        H130   1.084       .  S
C126        C127   1.399       .  A
C126        C250   1.488       .  S
C127        C128   1.396       .  A
C127        H131   1.085       .  S
C128        C129   1.401       .  A
C128        C194   1.482       .  S
C129        H132   1.083       .  S
O133        C136   1.267       .  A
O133       Cd138   2.521       .  S
C134        C146   1.478       .  S
C134        O143   1.268       .  A
C134        O139   1.269       .  A
O135        C141   1.266       .  A
O135       Cd138   2.466       .  S
C136        O144   1.260       .  A
C137        O142   1.266       .  A
C137        O140   1.264       .  A
Cd138       O145   2.464       .  S
Cd138       O144   2.410       .  S
Cd138       O143   2.441       .  S
Cd138       O139   2.463       .  S
Cd138       O142   2.472       .  S
Cd138       O140   2.457       .  S
C141        O145   1.265       .  A
C146        C147   1.408       .  A
C146        C151   1.409       .  A
C147        C148   1.400       .  A
C147        H152   1.084       .  S
C148        C149   1.400       .  A
C148        C222   1.487       .  S
C149        C150   1.400       .  A
C149        H153   1.085       .  S
C150        C151   1.404       .  A
C150        C180   1.489   1_455  S
C151        H154   1.083       .  S
C155        C156   1.413       .  A
C155        C160   1.406       .  A
C155        C167   1.478       .  S
C156        C157   1.412       .  A
C156        H161   1.080       .  S
C157        C158   1.409       .  A
C157        C208   1.517       .  S
C158        C159   1.397       .  A
C158        H162   1.081       .  S
C159        C160   1.398       .  A
C159        C177   1.495       .  S
C160        H163   1.083       .  S
O164        C167   1.269       .  A
O164       Cd169   2.451       .  S
C165        O174   1.260       .  A
C165        O170   1.267       .  A
O166        C172   1.266       .  A
O166       Cd169   2.466       .  S
C167        O175   1.268       .  A
C168        O173   1.265       .  A
C168        O171   1.264       .  A
Cd169       O176   2.459       .  S
Cd169       O175   2.459       .  S
Cd169       O174   2.420       .  S
Cd169       O170   2.525       .  S
Cd169       O173   2.474       .  S
Cd169       O171   2.465       .  S
C172        O176   1.265       .  A
C177        C178   1.414       .  A
C177        C182   1.418       .  A
C178        C179   1.411       .  A
C178        C183   1.451       .  S
C179        C180   1.413       .  A
C179        C186   1.451   1_655  S
C180        C181   1.411       .  A
C181        C182   1.412       .  A
C181        C184   1.452       .  S
C182        C185   1.451       .  S
C183        N190   1.157       .  T
C184        N189   1.157   1_655  T
C185        N187   1.157       .  T
C186        N188   1.157       .  T
C191        C196   1.411       .  A
C191        C768   1.410       .  A
C192        C193   1.412       .  A
C192        C767   1.410   1_545  A
C192        C197   1.449       .  S
C193        C770   1.412   1_545  A
C193        C200   1.450       .  S
C194        C195   1.410       .  A
C194        C769   1.412       .  A
C195        C196   1.408       .  A
C195        C198   1.451       .  S
C196        C199   1.450       .  S
C197        N204   1.157       .  T
C198        N203   1.157       .  T
C199        N201   1.157       .  T
C200        N202   1.157       .  T
C205        C494   1.422       .  A
C205        C498   1.427       .  A
C206        C207   1.395       .  A
C206        C493   1.422   1_554  A
C206        C499   1.453   1_554  S
C207        C208   1.414       .  A
C207        C214   1.454       .  S
C208        C209   1.424       .  A
C209        C210   1.425       .  A
C209        C212   1.449       .  S
C210        C493   1.427   1_554  A
C210        C501   1.449   1_554  S
C211        C494   1.453       .  S
C211        N218   1.158       .  T
C212        N217   1.158       .  T
C213        C498   1.449       .  S
C213        N215   1.158       .  T
C214        N216   1.158       .  T
C219        C508   1.416       .  A
C219        C512   1.415       .  A
C220        C221   1.413       .  A
C220        C507   1.416   1_554  A
C220        C513   1.450   1_554  S
C221        C222   1.412       .  A
C221        C228   1.451       .  S
C222        C223   1.411       .  A
C223        C224   1.407       .  A
C223        C226   1.452       .  S
C224        C507   1.415   1_554  A
C224        C515   1.452   1_554  S
C225        C508   1.450       .  S
C225        N232   1.157       .  T
C226        N231   1.157       .  T
C227        C512   1.452       .  S
C227        N229   1.157       .  T
C228        N230   1.157       .  T
C233        C234   1.412       .  A
C233        C238   1.409       .  A
C234        C235   1.410       .  A
C234        C239   1.450   1_655  S
C235        C236   1.409       .  A
C235        C242   1.449       .  S
C236        C237   1.416       .  A
C237        C238   1.409       .  A
C237        C240   1.452       .  S
C238        C241   1.451       .  S
C239        N246   1.157       .  T
C240        N245   1.157       .  T
C241        N243   1.157   1_655  T
C242        N244   1.157       .  T
C247       C1112   1.415       .  A
C247        C540   1.417       .  A
C248        C249   1.407       .  A
C248       C1111   1.415   1_554  A
C248        C541   1.450   1_554  S
C249        C826   1.412       .  A
C249        C256   1.453       .  S
C250        C251   1.412       .  A
C250        C825   1.412       .  A
C251        C252   1.414       .  A
C251        C254   1.450       .  S
C252        C535   1.417   1_554  A
C252        C543   1.450   1_554  S
C253        C536   1.450       .  S
C253        N260   1.157       .  T
C254        N259   1.157       .  T
C255        C540   1.450       .  S
C255        N257   1.157       .  T
C256        N258   1.157       .  T
C261       C1126   1.411       .  A
C261        C554   1.411       .  A
C262        C263   1.415       .  A
C262       C1125   1.411   1_544  A
C262        C555   1.450   1_554  S
C263        C840   1.418   1_545  A
C263        C270   1.450       .  S
C264        C265   1.416       .  A
C264        C839   1.418       .  A
C265        C266   1.406       .  A
C265        C268   1.450       .  S
C266        C549   1.411   1_554  A
C266        C557   1.453   1_554  S
C267        C550   1.450       .  S
C267        N274   1.157       .  T
C268        N273   1.157       .  T
C269        C554   1.453       .  S
C269        N271   1.157       .  T
C270        N272   1.157       .  T
C275        C280   1.410       .  A
C275        C852   1.411       .  A
C276        C277   1.408       .  A
C276        C851   1.411       .  A
C276        C281   1.450       .  S
C277        C854   1.410       .  A
C277        C284   1.450       .  S
C278        C279   1.412       .  A
C278        C853   1.410       .  A
C279        C280   1.411       .  A
C279        C282   1.450       .  S
C280        C283   1.450       .  S
C281        N288   1.157       .  T
C282        N287   1.157       .  T
C283        N285   1.157       .  T
C284        N286   1.157       .  T
C289        C290   1.409   1_565  A
C289        C294   1.410       .  A
C289        C877   1.477       .  S
C290        C867   1.400       .  A
C290        H295   1.083       .  S
C291        C866   1.400       .  A
C291        C292   1.396       .  A
C291        C566   1.482       .  S
C292        C293   1.399       .  A
C292        H296   1.085       .  S
C293        C870   1.402       .  A
C293        C549   1.488       .  S
C294        C869   1.402       .  A
C294        H297   1.084       .  S
O298        C301   1.269       .  A
O298       Cd303   2.453       .  S
C299        C389   1.465       .  S
C299        O308   1.260       .  A
C299        O304   1.267       .  A
O300        C306   1.266       .  A
O300       Cd879   2.466   1_545  S
C301        C865   1.477       .  S
C301        O885   1.267       .  A
C302        C368   1.465       .  S
C302        O307   1.265       .  A
C302        O305   1.265       .  A
Cd303       O876   2.466       .  S
Cd303       O886   2.451       .  S
Cd303       O885   2.446       .  S
Cd303       O308   2.414       .  S
Cd303       O304   2.523       .  S
Cd303       O307   2.468       .  S
Cd303       O305   2.467       .  S
C306        C372   1.462       .  S
C306        O310   1.264       .  A
O309        C877   1.267       .  A
O309       Cd879   2.446       .  S
O310       Cd879   2.451   1_545  S
O311        C314   1.267       .  A
O311       Cd316   2.521       .  S
C312        C324   1.477       .  S
C312        O321   1.268       .  A
C312        O317   1.269       .  A
O313        C319   1.266       .  A
O313       Cd892   2.470       .  S
C314        C400   1.465       .  S
C314        O322   1.260       .  A
C315        C337   1.463       .  S
C315        O320   1.266       .  A
C315        O318   1.264       .  A
Cd316       O889   2.470       .  S
Cd316       O899   2.457       .  S
Cd316       O322   2.413       .  S
Cd316       O321   2.445       .  S
Cd316       O317   2.452       .  S
Cd316       O320   2.464       .  S
Cd316       O318   2.460       .  S
C319        C341   1.464       .  S
C319        O323   1.264       .  A
O323       Cd892   2.457       .  S
C324        C325   1.408       .  A
C324        C329   1.409       .  A
C325        C326   1.399       .  A
C325        H330   1.083       .  S
C326        C327   1.399       .  A
C326        C563   1.483       .  S
C327        C328   1.402       .  A
C327        H331   1.085       .  S
C328        C329   1.404       .  A
C328        C535   1.494       .  S
C329        H332   1.084       .  S
O333        C336   1.266       .  A
O333       Cd338   2.521       .  S
C334        C346   1.476       .  S
C334        O343   1.268       .  A
C334        O339   1.268       .  A
O335        C341   1.265       .  A
O335       Cd338   2.465       .  S
C336        C424   1.464       .  S
C336        O344   1.260       .  A
C337        O342   1.265       .  A
C337        O340   1.264       .  A
Cd338       O345   2.462       .  S
Cd338       O344   2.413       .  S
Cd338       O343   2.447       .  S
Cd338       O339   2.447       .  S
Cd338       O342   2.469       .  S
Cd338       O340   2.456       .  S
C341        O345   1.264       .  A
C346        C347   1.407       .  A
C346        C351   1.409       .  A
C347        C348   1.398       .  A
C347        H352   1.083       .  S
C348        C349   1.396       .  A
C348        C521   1.481   1_455  S
C349        C350   1.402       .  A
C349        H353   1.085       .  S
C350        C351   1.404       .  A
C350        C507   1.492       .  S
C351        H354   1.084       .  S
C355        C356   1.403       .  A
C355        C360   1.413       .  A
C355        C367   1.478       .  S
C356        C357   1.393       .  A
C356        H361   1.083       .  S
C357        C358   1.394       .  A
C357        C524   1.483       .  S
C358        C359   1.410       .  A
C358        H362   1.081       .  S
C359        C360   1.418       .  A
C359        C493   1.522       .  S
C360        H363   1.079       .  S
O364        C367   1.268       .  A
O364       Cd369   2.440       .  S
C365        C453   1.467       .  S
C365        O374   1.260       .  A
C365        O370   1.267       .  A
O366        C372   1.266       .  A
O366       Cd369   2.461       .  S
C367        O375   1.268       .  A
C368        O373   1.265       .  A
C368        O371   1.264       .  A
Cd369       O376   2.454       .  S
Cd369       O375   2.469       .  S
Cd369       O374   2.421       .  S
Cd369       O370   2.525       .  S
Cd369       O373   2.475       .  S
Cd369       O371   2.461       .  S
C372        O376   1.264       .  A
C377        C378   1.410       .  A
C377        C382   1.408       .  A
C377        C387   1.478       .  S
C378        C379   1.405       .  A
C378        H383   1.084       .  S
C379        C380   1.403       .  A
C379        C552   1.496       .  S
C380        C381   1.399       .  A
C380        H384   1.085       .  S
C381        C382   1.399       .  A
C381        C479   1.484       .  S
C382        H385   1.083       .  S
O386        C389   1.267       .  A
O386       Cd391   2.522       .  S
C387        O396   1.268       .  A
C387        O392   1.268       .  A
O388        C394   1.266       .  A
O388       Cd967   2.472   1_545  S
C389        O397   1.260       .  A
C390        C460   1.464       .  S
C390        O395   1.265       .  A
C390        O393   1.264       .  A
Cd391       O964   2.472       .  S
Cd391       O974   2.465       .  S
Cd391       O397   2.415       .  S
Cd391       O396   2.449       .  S
Cd391       O392   2.454       .  S
Cd391       O395   2.469       .  S
Cd391       O393   2.459       .  S
C394        C456   1.466       .  S
C394        O398   1.264       .  A
O398       Cd967   2.465   1_545  S
O399        C402   1.268       .  A
O399       Cd404   2.455       .  S
C400        O409   1.260       .  A
C400        O405   1.267       .  A
O401        C407   1.266       .  A
O401       Cd980   2.466   1_545  S
C402        C412   1.478       .  S
C402        O986   1.268       .  A
C403        C429   1.465       .  S
C403        O408   1.265       .  A
C403        O406   1.264       .  A
Cd404       O977   2.466       .  S
Cd404       O987   2.462       .  S
Cd404       O986   2.450       .  S
Cd404       O409   2.414       .  S
Cd404       O405   2.522       .  S
Cd404       O408   2.473       .  S
Cd404       O406   2.460       .  S
C407        C425   1.464       .  S
C407        O411   1.264       .  A
O410        C978   1.268       .  A
O410       Cd980   2.450       .  S
O411       Cd980   2.462   1_545  S
C412        C413   1.410       .  A
C412        C417   1.409       .  A
C413        C414   1.402       .  A
C413        H418   1.084       .  S
C414        C415   1.399       .  A
C414        C538   1.488       .  S
C415        C416   1.396       .  A
C415        H419   1.085       .  S
C416        C417   1.401       .  A
C416        C482   1.482       .  S
C417        H420   1.083       .  S
O421        C424   1.267       .  A
O421       Cd426   2.521       .  S
C422        C434   1.478       .  S
C422        O431   1.268       .  A
C422        O427   1.269       .  A
O423        C429   1.266       .  A
O423       Cd426   2.466       .  S
C424        O432   1.260       .  A
C425        O430   1.266       .  A
C425        O428   1.264       .  A
Cd426       O433   2.464       .  S
Cd426       O432   2.410       .  S
Cd426       O431   2.441       .  S
Cd426       O427   2.463       .  S
Cd426       O430   2.472       .  S
Cd426       O428   2.457       .  S
C429        O433   1.265       .  A
C434        C435   1.408       .  A
C434        C439   1.409       .  A
C435        C436   1.400       .  A
C435        H440   1.084       .  S
C436        C437   1.400       .  A
C436        C510   1.487       .  S
C437        C438   1.400       .  A
C437        H441   1.085       .  S
C438        C439   1.404       .  A
C438        C468   1.489   1_455  S
C439        H442   1.083       .  S
C443        C444   1.413       .  A
C443        C448   1.406       .  A
C443        C455   1.478       .  S
C444        C445   1.412       .  A
C444        H449   1.080       .  S
C445        C446   1.409       .  A
C445        C496   1.517       .  S
C446        C447   1.397       .  A
C446        H450   1.081       .  S
C447        C448   1.398       .  A
C447        C465   1.495       .  S
C448        H451   1.083       .  S
O452        C455   1.269       .  A
O452       Cd457   2.451       .  S
C453        O462   1.260       .  A
C453        O458   1.267       .  A
O454        C460   1.266       .  A
O454       Cd457   2.466       .  S
C455        O463   1.268       .  A
C456        O461   1.265       .  A
C456        O459   1.264       .  A
Cd457       O464   2.459       .  S
Cd457       O463   2.459       .  S
Cd457       O462   2.420       .  S
Cd457       O458   2.525       .  S
Cd457       O461   2.474       .  S
Cd457       O459   2.465       .  S
C460        O464   1.265       .  A
C465        C466   1.414       .  A
C465        C470   1.418       .  A
C466        C467   1.411       .  A
C466        C471   1.451       .  S
C467        C468   1.413       .  A
C467        C474   1.451   1_655  S
C468        C469   1.411       .  A
C469        C470   1.412       .  A
C469        C472   1.452       .  S
C470        C473   1.451       .  S
C471        N478   1.157       .  T
C472        N477   1.157   1_655  T
C473        N475   1.157       .  T
C474        N476   1.157       .  T
C479       C1056   1.410       .  A
C479        C484   1.411       .  A
C480       C1055   1.410   1_545  A
C480        C481   1.412       .  A
C480        C485   1.449       .  S
C481       C1058   1.412   1_545  A
C481        C488   1.450       .  S
C482       C1057   1.412       .  A
C482        C483   1.410       .  A
C483        C484   1.408       .  A
C483        C486   1.451       .  S
C484        C487   1.450       .  S
C485        N492   1.157       .  T
C486        N491   1.157       .  T
C487        N489   1.157       .  T
C488        N490   1.157       .  T
C494        C495   1.395       .  A
C495        C496   1.414       .  A
C495        C502   1.454       .  S
C496        C497   1.424       .  A
C497        C498   1.425       .  A
C497        C500   1.449       .  S
C499        N506   1.158       .  T
C500        N505   1.158       .  T
C501        N503   1.158       .  T
C502        N504   1.158       .  T
C508        C509   1.413       .  A
C509        C510   1.412       .  A
C509        C516   1.451       .  S
C510        C511   1.411       .  A
C511        C512   1.407       .  A
C511        C514   1.452       .  S
C513        N520   1.157       .  T
C514        N519   1.157       .  T
C515        N517   1.157       .  T
C516        N518   1.157       .  T
C521        C522   1.412       .  A
C521        C526   1.409       .  A
C522        C523   1.410       .  A
C522        C527   1.450   1_655  S
C523        C524   1.409       .  A
C523        C530   1.449       .  S
C524        C525   1.416       .  A
C525        C526   1.409       .  A
C525        C528   1.452       .  S
C526        C529   1.451       .  S
C527        N534   1.157       .  T
C528        N533   1.157       .  T
C529        N531   1.157   1_655  T
C530        N532   1.157       .  T
C535        C824   1.415   1_556  A
C536        C823   1.415       .  A
C536        C537   1.407       .  A
C537       C1114   1.412       .  A
C537        C544   1.453       .  S
C538       C1113   1.412       .  A
C538        C539   1.412       .  A
C539        C540   1.414       .  A
C539        C542   1.450       .  S
C541        N548   1.157       .  T
C542        N547   1.157       .  T
C543        N545   1.157       .  T
C544        N546   1.157       .  T
C549        C838   1.411   1_556  A
C550        C837   1.411   1_545  A
C550        C551   1.415       .  A
C551       C1128   1.418   1_545  A
C551        C558   1.450       .  S
C552       C1127   1.418       .  A
C552        C553   1.416       .  A
C553        C554   1.406       .  A
C553        C556   1.450       .  S
C555        N562   1.157       .  T
C556        N561   1.157       .  T
C557        N559   1.157       .  T
C558        N560   1.157       .  T
C563       C1140   1.411       .  A
C563        C568   1.410       .  A
C564       C1139   1.411       .  A
C564        C565   1.408       .  A
C564        C569   1.450       .  S
C565       C1142   1.410       .  A
C565        C572   1.450       .  S
C566       C1141   1.410       .  A
C566        C567   1.412       .  A
C567        C568   1.411       .  A
C567        C570   1.450       .  S
C568        C571   1.450       .  S
C569        N576   1.157       .  T
C570        N575   1.157       .  T
C571        N573   1.157       .  T
C572        N574   1.157       .  T
C577        C578   1.409       .  A
C577        C582   1.410       .  A
C578        H583   1.083       .  S
C579        C580   1.396       .  A
C579        C854   1.482       .  S
C580        C581   1.399   1_545  A
C580        H584   1.085       .  S
C581        C837   1.488       .  S
C582        H585   1.084       .  S
O586        C589   1.269       .  A
O586       Cd591   2.453       .  S
C587        C677   1.465       .  S
C587        O596   1.260       .  A
C587        O592   1.267       .  A
O588        C594   1.266       .  A
C590        C656   1.465       .  S
C590        O595   1.265       .  A
C590        O593   1.265       .  A
Cd591       O596   2.414       .  S
Cd591       O592   2.523       .  S
Cd591       O595   2.468       .  S
Cd591       O593   2.467       .  S
C594        C660   1.462       .  S
C594        O598   1.264       .  A
O599        C602   1.267   1_545  A
O599       Cd604   2.521       .  S
C600        C612   1.477       .  S
C600        O609   1.268       .  A
C600        O605   1.269       .  A
O601        C607   1.266       .  A
C602        C688   1.465       .  S
C602        O610   1.260       .  A
C603        C625   1.463       .  S
C603        O608   1.266       .  A
C603        O606   1.264       .  A
Cd604       O610   2.413   1_545  S
Cd604       O609   2.445       .  S
Cd604       O605   2.452       .  S
Cd604       O608   2.464   1_545  S
Cd604       O606   2.460   1_545  S
C607        C629   1.464       .  S
C607        O611   1.264       .  A
C612        C613   1.408       .  A
C612        C617   1.409       .  A
C613        C614   1.399       .  A
C613        H618   1.083       .  S
C614        C615   1.399       .  A
C614        C851   1.483       .  S
C615        C616   1.402       .  A
C615        H619   1.085       .  S
C616        C617   1.404       .  A
C616        C823   1.494       .  S
C617        H620   1.084       .  S
O621        C624   1.266       .  A
O621       Cd626   2.521       .  S
C622        C634   1.476       .  S
C622        O631   1.268       .  A
C622        O627   1.268       .  A
O623        C629   1.265       .  A
O623       Cd626   2.465       .  S
C624        C712   1.464       .  S
C624        O632   1.260       .  A
C625        O630   1.265       .  A
C625        O628   1.264       .  A
Cd626       O633   2.462       .  S
Cd626       O632   2.413       .  S
Cd626       O631   2.447       .  S
Cd626       O627   2.447       .  S
Cd626       O630   2.469       .  S
Cd626       O628   2.456       .  S
C629        O633   1.264       .  A
C634        C635   1.407       .  A
C634        C639   1.409       .  A
C635        C636   1.398       .  A
C635        H640   1.083       .  S
C636        C637   1.396       .  A
C636        C809   1.481   1_455  S
C637        C638   1.402       .  A
C637        H641   1.085       .  S
C638        C639   1.404       .  A
C638        C795   1.492       .  S
C639        H642   1.084       .  S
C643        C644   1.403       .  A
C643        C648   1.413       .  A
C643        C655   1.478       .  S
C644        C645   1.393       .  A
C644        H649   1.083       .  S
C645        C646   1.394       .  A
C645        C812   1.483       .  S
C646        C647   1.410       .  A
C646        H650   1.081       .  S
C647        C648   1.418       .  A
C647        C781   1.522       .  S
C648        H651   1.079       .  S
O652        C655   1.268       .  A
O652       Cd657   2.440       .  S
C653        C741   1.467       .  S
C653        O662   1.260       .  A
C653        O658   1.267       .  A
O654        C660   1.266       .  A
O654       Cd657   2.461       .  S
C655        O663   1.268       .  A
C656        O661   1.265       .  A
C656        O659   1.264       .  A
Cd657       O664   2.454       .  S
Cd657       O663   2.469       .  S
Cd657       O662   2.421       .  S
Cd657       O658   2.525       .  S
Cd657       O661   2.475       .  S
Cd657       O659   2.461       .  S
C660        O664   1.264       .  A
C665        C666   1.410       .  A
C665        C670   1.408       .  A
C665        C675   1.478       .  S
C666        C667   1.405       .  A
C666        H671   1.084       .  S
C667        C668   1.403       .  A
C667        C840   1.496       .  S
C668        C669   1.399       .  A
C668        H672   1.085       .  S
C669        C670   1.399       .  A
C669        C767   1.484       .  S
C670        H673   1.083       .  S
O674        C677   1.267       .  A
O674       Cd679   2.522       .  S
C675        O684   1.268       .  A
C675        O680   1.268       .  A
O676        C682   1.266       .  A
C677        O685   1.260       .  A
C678        C748   1.464       .  S
C678        O683   1.265       .  A
C678        O681   1.264       .  A
Cd679       O685   2.415       .  S
Cd679       O684   2.449       .  S
Cd679       O680   2.454       .  S
Cd679       O683   2.469       .  S
Cd679       O681   2.459       .  S
C682        C744   1.466       .  S
C682        O686   1.264       .  A
O687        C690   1.268       .  A
O687       Cd692   2.455       .  S
C688        O697   1.260       .  A
C688        O693   1.267       .  A
O689        C695   1.266       .  A
C690        C700   1.478       .  S
C691        C717   1.465       .  S
C691        O696   1.265       .  A
C691        O694   1.264       .  A
Cd692       O697   2.414       .  S
Cd692       O693   2.522       .  S
Cd692       O696   2.473       .  S
Cd692       O694   2.460       .  S
C695        C713   1.464       .  S
C695        O699   1.264       .  A
C700        C701   1.410       .  A
C700        C705   1.409       .  A
C701        C702   1.402       .  A
C701        H706   1.084   1_565  S
C702        C703   1.399       .  A
C702        C826   1.488   1_565  S
C703        C704   1.396       .  A
C703        H707   1.085       .  S
C704        C705   1.401       .  A
C704        C770   1.482       .  S
C705        H708   1.083       .  S
O709        C712   1.267       .  A
O709       Cd714   2.521       .  S
C710        C722   1.478       .  S
C710        O719   1.268       .  A
C710        O715   1.269       .  A
O711        C717   1.266       .  A
O711       Cd714   2.466       .  S
C712        O720   1.260       .  A
C713        O718   1.266       .  A
C713        O716   1.264       .  A
Cd714       O721   2.464       .  S
Cd714       O720   2.410       .  S
Cd714       O719   2.441       .  S
Cd714       O715   2.463       .  S
Cd714       O718   2.472       .  S
Cd714       O716   2.457       .  S
C717        O721   1.265       .  A
C722        C723   1.408       .  A
C722        C727   1.409       .  A
C723        C724   1.400       .  A
C723        H728   1.084       .  S
C724        C725   1.400       .  A
C724        C798   1.487       .  S
C725        C726   1.400       .  A
C725        H729   1.085       .  S
C726        C727   1.404       .  A
C726        C756   1.489   1_455  S
C727        H730   1.083       .  S
C731        C732   1.413       .  A
C731        C736   1.406       .  A
C731        C743   1.478       .  S
C732        C733   1.412       .  A
C732        H737   1.080       .  S
C733        C734   1.409       .  A
C733        C784   1.517       .  S
C734        C735   1.397       .  A
C734        H738   1.081       .  S
C735        C736   1.398       .  A
C735        C753   1.495       .  S
C736        H739   1.083       .  S
O740        C743   1.269       .  A
O740       Cd745   2.451       .  S
C741        O750   1.260       .  A
C741        O746   1.267       .  A
O742        C748   1.266       .  A
O742       Cd745   2.466       .  S
C743        O751   1.268       .  A
C744        O749   1.265       .  A
C744        O747   1.264       .  A
Cd745       O752   2.459       .  S
Cd745       O751   2.459       .  S
Cd745       O750   2.420       .  S
Cd745       O746   2.525       .  S
Cd745       O749   2.474       .  S
Cd745       O747   2.465       .  S
C748        O752   1.265       .  A
C753        C754   1.414       .  A
C753        C758   1.418       .  A
C754        C755   1.411       .  A
C754        C759   1.451       .  S
C755        C756   1.413       .  A
C755        C762   1.451   1_655  S
C756        C757   1.411       .  A
C757        C758   1.412       .  A
C757        C760   1.452       .  S
C758        C761   1.451       .  S
C759        N766   1.157       .  T
C760        N765   1.157   1_655  T
C761        N763   1.157       .  T
C762        N764   1.157       .  T
C767        C772   1.411       .  A
C768        C769   1.412       .  A
C768        C773   1.449       .  S
C769        C776   1.450       .  S
C770        C771   1.410       .  A
C771        C772   1.408       .  A
C771        C774   1.451       .  S
C772        C775   1.450       .  S
C773        N780   1.157       .  T
C774        N779   1.157       .  T
C775        N777   1.157       .  T
C776        N778   1.157       .  T
C781       C1070   1.422       .  A
C781       C1074   1.427       .  A
C782       C1069   1.422   1_554  A
C782        C783   1.395       .  A
C782       C1075   1.453   1_554  S
C783        C784   1.414       .  A
C783        C790   1.454       .  S
C784        C785   1.424       .  A
C785        C786   1.425       .  A
C785        C788   1.449       .  S
C786       C1069   1.427   1_554  A
C786       C1077   1.449   1_554  S
C787       C1070   1.453       .  S
C787        N794   1.158       .  T
C788        N793   1.158       .  T
C789       C1074   1.449       .  S
C789        N791   1.158       .  T
C790        N792   1.158       .  T
C795       C1084   1.416       .  A
C795       C1088   1.415       .  A
C796       C1083   1.416   1_554  A
C796        C797   1.413       .  A
C796       C1089   1.450   1_554  S
C797        C798   1.412       .  A
C797        C804   1.451       .  S
C798        C799   1.411       .  A
C799        C800   1.407       .  A
C799        C802   1.452       .  S
C800       C1083   1.415   1_554  A
C800       C1091   1.452   1_554  S
C801       C1084   1.450       .  S
C801        N808   1.157       .  T
C802        N807   1.157       .  T
C803       C1088   1.452       .  S
C803        N805   1.157       .  T
C804        N806   1.157       .  T
C809        C810   1.412       .  A
C809        C814   1.409       .  A
C810        C811   1.410       .  A
C810        C815   1.450   1_655  S
C811        C812   1.409       .  A
C811        C818   1.449       .  S
C812        C813   1.416       .  A
C813        C814   1.409       .  A
C813        C816   1.452       .  S
C814        C817   1.451       .  S
C815        N822   1.157       .  T
C816        N821   1.157       .  T
C817        N819   1.157   1_655  T
C818        N820   1.157       .  T
C823       C1116   1.417   1_545  A
C824        C825   1.407       .  A
C824       C1117   1.450   1_554  S
C825        C832   1.453       .  S
C826        C827   1.412   1_545  A
C827        C828   1.414       .  A
C827        C830   1.450       .  S
C828       C1111   1.417   1_564  A
C828       C1119   1.450   1_554  S
C829       C1112   1.450       .  S
C829        N836   1.157       .  T
C830        N835   1.157       .  T
C831       C1116   1.450       .  S
C831        N833   1.157       .  T
C832        N834   1.157       .  T
C837       C1130   1.411       .  A
C838        C839   1.415       .  A
C838       C1131   1.450   1_554  S
C839        C846   1.450       .  S
C840        C841   1.416       .  A
C841        C842   1.406       .  A
C841        C844   1.450       .  S
C842       C1125   1.411   1_554  A
C842       C1133   1.453   1_554  S
C843       C1126   1.450       .  S
C843        N850   1.157       .  T
C844        N849   1.157       .  T
C845       C1130   1.453       .  S
C845        N847   1.157       .  T
C846        N848   1.157       .  T
C851        C856   1.410   1_545  A
C852        C853   1.408       .  A
C852        C857   1.450       .  S
C853        C860   1.450       .  S
C854        C855   1.412   1_545  A
C855        C856   1.411       .  A
C855        C858   1.450       .  S
C856        C859   1.450       .  S
C857        N864   1.157       .  T
C858        N863   1.157       .  T
C859        N861   1.157       .  T
C860        N862   1.157       .  T
C865        C866   1.409       .  A
C865        C870   1.410       .  A
C866        H871   1.083       .  S
C867        C868   1.396       .  A
C867       C1142   1.482       .  S
C868        C869   1.399   1_545  A
C868        H872   1.085       .  S
C869       C1125   1.488       .  S
C870        H873   1.084       .  S
O874        C877   1.269       .  A
O874       Cd879   2.453       .  S
C875        C965   1.465       .  S
C875        O884   1.260       .  A
C875        O880   1.267       .  A
O876        C882   1.266       .  A
C878        C944   1.465       .  S
C878        O883   1.265       .  A
C878        O881   1.265       .  A
Cd879       O884   2.414       .  S
Cd879       O880   2.523       .  S
Cd879       O883   2.468       .  S
Cd879       O881   2.467       .  S
C882        C948   1.462       .  S
C882        O886   1.264       .  A
O887        C890   1.267   1_545  A
O887       Cd892   2.521       .  S
C888        C900   1.477       .  S
C888        O897   1.268       .  A
C888        O893   1.269       .  A
O889        C895   1.266       .  A
C890        C976   1.465       .  S
C890        O898   1.260       .  A
C891        C913   1.463       .  S
C891        O896   1.266       .  A
C891        O894   1.264       .  A
Cd892       O898   2.413   1_545  S
Cd892       O897   2.445       .  S
Cd892       O893   2.452       .  S
Cd892       O896   2.464   1_545  S
Cd892       O894   2.460   1_545  S
C895        C917   1.464       .  S
C895        O899   1.264       .  A
C900        C901   1.408       .  A
C900        C905   1.409       .  A
C901        C902   1.399       .  A
C901        H906   1.083       .  S
C902        C903   1.399       .  A
C902       C1139   1.483       .  S
C903        C904   1.402       .  A
C903        H907   1.085       .  S
C904        C905   1.404       .  A
C904       C1111   1.494       .  S
C905        H908   1.084       .  S
O909        C912   1.266       .  A
O909       Cd914   2.521       .  S
C910        C922   1.476       .  S
C910        O919   1.268       .  A
C910        O915   1.268       .  A
O911        C917   1.265       .  A
O911       Cd914   2.465       .  S
C912       C1000   1.464       .  S
C912        O920   1.260       .  A
C913        O918   1.265       .  A
C913        O916   1.264       .  A
Cd914       O921   2.462       .  S
Cd914       O920   2.413       .  S
Cd914       O919   2.447       .  S
Cd914       O915   2.447       .  S
Cd914       O918   2.469       .  S
Cd914       O916   2.456       .  S
C917        O921   1.264       .  A
C922        C923   1.407       .  A
C922        C927   1.409       .  A
C923        C924   1.398       .  A
C923        H928   1.083       .  S
C924        C925   1.396       .  A
C924       C1097   1.481   1_455  S
C925        C926   1.402       .  A
C925        H929   1.085       .  S
C926        C927   1.404       .  A
C926       C1083   1.492       .  S
C927        H930   1.084       .  S
C931        C932   1.403       .  A
C931        C936   1.413       .  A
C931        C943   1.478       .  S
C932        C933   1.393       .  A
C932        H937   1.083       .  S
C933        C934   1.394       .  A
C933       C1100   1.483       .  S
C934        C935   1.410       .  A
C934        H938   1.081       .  S
C935        C936   1.418       .  A
C935       C1069   1.522       .  S
C936        H939   1.079       .  S
O940        C943   1.268       .  A
O940       Cd945   2.440       .  S
C941       C1029   1.467       .  S
C941        O950   1.260       .  A
C941        O946   1.267       .  A
O942        C948   1.266       .  A
O942       Cd945   2.461       .  S
C943        O951   1.268       .  A
C944        O949   1.265       .  A
C944        O947   1.264       .  A
Cd945       O952   2.454       .  S
Cd945       O951   2.469       .  S
Cd945       O950   2.421       .  S
Cd945       O946   2.525       .  S
Cd945       O949   2.475       .  S
Cd945       O947   2.461       .  S
C948        O952   1.264       .  A
C953        C954   1.410       .  A
C953        C958   1.408       .  A
C953        C963   1.478       .  S
C954        C955   1.405       .  A
C954        H959   1.084       .  S
C955        C956   1.403       .  A
C955       C1128   1.496       .  S
C956        C957   1.399       .  A
C956        H960   1.085       .  S
C957        C958   1.399       .  A
C957       C1055   1.484       .  S
C958        H961   1.083       .  S
O962        C965   1.267       .  A
O962       Cd967   2.522       .  S
C963        O972   1.268       .  A
C963        O968   1.268       .  A
O964        C970   1.266       .  A
C965        O973   1.260       .  A
C966       C1036   1.464       .  S
C966        O971   1.265       .  A
C966        O969   1.264       .  A
Cd967       O973   2.415       .  S
Cd967       O972   2.449       .  S
Cd967       O968   2.454       .  S
Cd967       O971   2.469       .  S
Cd967       O969   2.459       .  S
C970       C1032   1.466       .  S
C970        O974   1.264       .  A
O975        C978   1.268       .  A
O975       Cd980   2.455       .  S
C976        O985   1.260       .  A
C976        O981   1.267       .  A
O977        C983   1.266       .  A
C978        C988   1.478       .  S
C979       C1005   1.465       .  S
C979        O984   1.265       .  A
C979        O982   1.264       .  A
Cd980       O985   2.414       .  S
Cd980       O981   2.522       .  S
Cd980       O984   2.473       .  S
Cd980       O982   2.460       .  S
C983       C1001   1.464       .  S
C983        O987   1.264       .  A
C988        C989   1.410       .  A
C988        C993   1.409       .  A
C989        C990   1.402       .  A
C989        H994   1.084   1_565  S
C990        C991   1.399       .  A
C990       C1114   1.488   1_565  S
C991        C992   1.396       .  A
C991        H995   1.085       .  S
C992        C993   1.401       .  A
C992       C1058   1.482       .  S
C993        H996   1.083       .  S
O997       C1000   1.267       .  A
O997      Cd1002   2.521       .  S
C998       C1010   1.478       .  S
C998       O1007   1.268       .  A
C998       O1003   1.269       .  A
O999       C1005   1.266       .  A
O999      Cd1002   2.466       .  S
C1000      O1008   1.260       .  A
C1001      O1006   1.266       .  A
C1001      O1004   1.264       .  A
Cd1002     O1009   2.464       .  S
Cd1002     O1008   2.410       .  S
Cd1002     O1007   2.441       .  S
Cd1002     O1003   2.463       .  S
Cd1002     O1006   2.472       .  S
Cd1002     O1004   2.457       .  S
C1005      O1009   1.265       .  A
C1010      C1011   1.408       .  A
C1010      C1015   1.409       .  A
C1011      C1012   1.400       .  A
C1011      H1016   1.084       .  S
C1012      C1013   1.400       .  A
C1012      C1086   1.487       .  S
C1013      C1014   1.400       .  A
C1013      H1017   1.085       .  S
C1014      C1015   1.404       .  A
C1014      C1044   1.489   1_455  S
C1015      H1018   1.083       .  S
C1019      C1020   1.413       .  A
C1019      C1024   1.406       .  A
C1019      C1031   1.478       .  S
C1020      C1021   1.412       .  A
C1020      H1025   1.080       .  S
C1021      C1022   1.409       .  A
C1021      C1072   1.517       .  S
C1022      C1023   1.397       .  A
C1022      H1026   1.081       .  S
C1023      C1024   1.398       .  A
C1023      C1041   1.495       .  S
C1024      H1027   1.083       .  S
O1028      C1031   1.269       .  A
O1028     Cd1033   2.451       .  S
C1029      O1038   1.260       .  A
C1029      O1034   1.267       .  A
O1030      C1036   1.266       .  A
O1030     Cd1033   2.466       .  S
C1031      O1039   1.268       .  A
C1032      O1037   1.265       .  A
C1032      O1035   1.264       .  A
Cd1033     O1040   2.459       .  S
Cd1033     O1039   2.459       .  S
Cd1033     O1038   2.420       .  S
Cd1033     O1034   2.525       .  S
Cd1033     O1037   2.474       .  S
Cd1033     O1035   2.465       .  S
C1036      O1040   1.265       .  A
C1041      C1042   1.414       .  A
C1041      C1046   1.418       .  A
C1042      C1043   1.411       .  A
C1042      C1047   1.451       .  S
C1043      C1044   1.413       .  A
C1043      C1050   1.451   1_655  S
C1044      C1045   1.411       .  A
C1045      C1046   1.412       .  A
C1045      C1048   1.452       .  S
C1046      C1049   1.451       .  S
C1047      N1054   1.157       .  T
C1048      N1053   1.157   1_655  T
C1049      N1051   1.157       .  T
C1050      N1052   1.157       .  T
C1055      C1060   1.411       .  A
C1056      C1057   1.412       .  A
C1056      C1061   1.449       .  S
C1057      C1064   1.450       .  S
C1058      C1059   1.410       .  A
C1059      C1060   1.408       .  A
C1059      C1062   1.451       .  S
C1060      C1063   1.450       .  S
C1061      N1068   1.157       .  T
C1062      N1067   1.157       .  T
C1063      N1065   1.157       .  T
C1064      N1066   1.157       .  T
C1070      C1071   1.395       .  A
C1071      C1072   1.414       .  A
C1071      C1078   1.454       .  S
C1072      C1073   1.424       .  A
C1073      C1074   1.425       .  A
C1073      C1076   1.449       .  S
C1075      N1082   1.158       .  T
C1076      N1081   1.158       .  T
C1077      N1079   1.158       .  T
C1078      N1080   1.158       .  T
C1084      C1085   1.413       .  A
C1085      C1086   1.412       .  A
C1085      C1092   1.451       .  S
C1086      C1087   1.411       .  A
C1087      C1088   1.407       .  A
C1087      C1090   1.452       .  S
C1089      N1096   1.157       .  T
C1090      N1095   1.157       .  T
C1091      N1093   1.157       .  T
C1092      N1094   1.157       .  T
C1097      C1098   1.412       .  A
C1097      C1102   1.409       .  A
C1098      C1099   1.410       .  A
C1098      C1103   1.450   1_655  S
C1099      C1100   1.409       .  A
C1099      C1106   1.449       .  S
C1100      C1101   1.416       .  A
C1101      C1102   1.409       .  A
C1101      C1104   1.452       .  S
C1102      C1105   1.451       .  S
C1103      N1110   1.157       .  T
C1104      N1109   1.157       .  T
C1105      N1107   1.157   1_655  T
C1106      N1108   1.157       .  T
C1112      C1113   1.407       .  A
C1113      C1120   1.453       .  S
C1114      C1115   1.412   1_545  A
C1115      C1116   1.414       .  A
C1115      C1118   1.450       .  S
C1117      N1124   1.157       .  T
C1118      N1123   1.157       .  T
C1119      N1121   1.157       .  T
C1120      N1122   1.157       .  T
C1126      C1127   1.415       .  A
C1127      C1134   1.450       .  S
C1128      C1129   1.416       .  A
C1129      C1130   1.406       .  A
C1129      C1132   1.450       .  S
C1131      N1138   1.157       .  T
C1132      N1137   1.157       .  T
C1133      N1135   1.157       .  T
C1134      N1136   1.157       .  T
C1139      C1144   1.410   1_545  A
C1140      C1141   1.408       .  A
C1140      C1145   1.450       .  S
C1141      C1148   1.450       .  S
C1142      C1143   1.412   1_545  A
C1143      C1144   1.411       .  A
C1143      C1146   1.450       .  S
C1144      C1147   1.450       .  S
C1145      N1152   1.157       .  T
C1146      N1151   1.157       .  T
C1147      N1149   1.157       .  T
C1148      N1150   1.157       .  T
