geometry optimzed in LAMMPS
_audit_creation_date              2020-11-30 
_audit_creation_method            'lammps2cif' 
_symmetry_space_group_name_H-M    'P1' 
_symmetry_Int_Tables_number       1 
_symmetry_cell_setting            triclinic 
loop_ 
_symmetry_equiv_pos_as_xyz 
  x,y,z 
_cell_length_a                    40.44428571 
_cell_length_b                    38.85310509343984 
_cell_length_c                    31.231735704657453 
_cell_angle_alpha                 90.58672368049831 
_cell_angle_beta                  90.67436154260324 
_cell_angle_gamma                 121.23289160320682 
loop_ 
_atom_site_label 
_atom_site_type_symbol 
_atom_site_fract_x 
_atom_site_fract_y 
_atom_site_fract_z 
_atom_site_charge 
C1          C  0.37461265  0.25871587  0.45072609     0.85800
C2          C  0.35921271  0.28704832  0.45795435    -0.54400
C3          C  0.36815124  0.30504498  0.99690551     0.08800
C4          C  0.39533561  0.29690553  0.02441918     0.19700
C5          C  0.41873758  0.28583509  0.45796271    -0.55100
C6          C  0.42985889  0.30666420  0.99534396     0.08900
C7          C  0.36257934  0.23147085  0.48953257    -0.54600
C8          C  0.37357984  0.25081488  0.02819684     0.09400
H9          H  0.34152467  0.29055849  0.43432769     0.14000
H10         H  0.40392440  0.31313825  0.05583944    -0.00300
H11         H  0.43960256  0.28293255  0.43981956     0.14300
H12         H  0.34896190  0.19798573  0.98800254     0.14100
C13         C  0.02862710  0.34753683  0.05147808     0.85800
C14         C  0.04137864  0.39213608  0.04525495    -0.54400
C15         C  0.02882429  0.39957713  0.50929657     0.08800
C16         C  0.00483523  0.36166221  0.48093753     0.19700
C17         C  0.48445436  0.32373926  0.04639255    -0.55100
C18         C  0.47152054  0.33077011  0.50912427     0.08900
C19         C  0.04480952  0.33890801  0.51184735    -0.54600
C20         C  0.03295179  0.34651896  0.47358595     0.09400
H21         H  0.06181070  0.41663190  0.06592541     0.14000
H22         H  0.49302696  0.36838833  0.45128337    -0.00300
H23         H  0.46523334  0.30347168  0.07036088     0.14300
H24         H  0.06440295  0.32775414  0.51388259     0.14100
C25         C  0.09671714  0.49118235  0.44163714     0.85800
C26         C  0.06668286  0.44666910  0.45108479    -0.54400
C27         C  0.05113601  0.44049906  0.98863225     0.08800
C28         C  0.06575472  0.47936744  0.01535969     0.19700
C29         C  0.07373021  0.51252926  0.44840489    -0.55100
C30         C  0.05862593  0.50707566  0.98663590     0.08900
C31         C  0.12504575  0.50392699  0.47995812    -0.54600
C32         C  0.10971762  0.49816885  0.01726196     0.09400
H33         H  0.06153264  0.42165377  0.43103516     0.14000
H34         H  0.05261496  0.47437049  0.04744766    -0.00300
H35         H  0.07402326  0.03149667  0.42364382     0.14300
H36         H  0.15716004  0.01398375  0.97505326     0.14100
C37         C  0.03101175  0.07302267  0.05050811     0.85800
C38         C  0.48785469  0.04425148  0.04366609    -0.54400
C39         C  0.47736862  0.02455807  0.50377059     0.08800
C40         C  0.01251593  0.03616583  0.47524905     0.19700
C41         C  0.04912405  0.04720653  0.04224307    -0.55100
C42         C  0.04026520  0.02854044  0.50242526     0.08900
C43         C  0.04123908  0.10068562  0.01174317    -0.54600
C44         C  0.03297189  0.08216018  0.47281313     0.09400
H45         H  0.46603935  0.04148701  0.06521959     0.14000
H46         H  0.50357854  0.52070004  0.44419687    -0.00300
H47         H  0.06830040  0.04520736  0.06524911     0.14300
H48         H  0.05564616  0.13364754  0.51468209     0.14100
C49         C  0.38031939  0.48498233  0.44166626     0.85800
C50         C  0.42565198  0.00717391  0.44911405    -0.54400
C51         C  0.43602550  0.50168711  0.98882513     0.08800
C52         C  0.40136393  0.47408996  0.01763446     0.19700
C53         C  0.36572957  0.44074743  0.45117079    -0.55100
C54         C  0.37703110  0.43484755  0.99129422     0.08900
C55         C  0.36665336  0.50037291  0.47941063    -0.54600
C56         C  0.37558268  0.49270553  0.01889225     0.09400
H57         H  0.44677337  0.02798885  0.42733974     0.14000
H58         H  0.41027758  0.46907746  0.04952902    -0.00300
H59         H  0.34616198  0.41628596  0.42954823     0.14300
H60         H  0.35365037  0.01826646  0.97588405     0.14100
C61         C  0.31273979  0.34505862  0.06112881     0.85800
C62         C  0.33460097  0.32260212  0.05284069    -0.54400
C63         C  0.34904604  0.32790143  0.51253374     0.08800
C64         C  0.34027703  0.35458014  0.48391482     0.19700
C65         C  0.34341778  0.38881498  0.05113989    -0.55100
C66         C  0.35546386  0.39401521  0.50998265     0.08900
C67         C  0.28267931  0.33071867  0.02400717    -0.54600
C68         C  0.29618144  0.33518460  0.48374507     0.09400
H69         H  0.33872117  0.30479120  0.07610077     0.14000
H70         H  0.35238653  0.35907245  0.45131674    -0.00300
H71         H  0.35168776  0.41362874  0.07336541     0.14300
H72         H  0.25049304  0.31567304  0.52875520     0.14100
Fe73       Fe  0.15009233  0.23011123  0.26357302     1.65800
Fe74       Fe  0.06885966  0.23599672  0.26273281     1.73200
Fe75       Fe  0.15885906  0.32240396  0.26361452     1.54400
O76         O  0.19679850  0.32342722  0.31070395    -0.82300
O77         O  0.06863389  0.26970868  0.21303628    -0.80600
O78         O  0.18443834  0.26072932  0.31546135    -0.84800
O79         O  0.19350276  0.26633189  0.22188006    -0.79700
O80         O  0.12889501  0.32908611  0.31269758    -0.81500
O81         O  0.06082217  0.19188077  0.21809074    -0.84200
C82         C  0.20655085  0.30045866  0.20510702     0.96600
C83         C  0.20199502  0.29704211  0.32830717     1.04000
O84         O  0.12592846  0.26295236  0.26315066    -1.13200
O85         O  0.06246204  0.19935586  0.31271661    -0.75600
O86         O  0.11095147  0.18872703  0.30541987    -0.79100
O87         O  0.19373896  0.32318585  0.21502511    -0.79800
C88         C  0.08005087  0.18161035  0.32321671     0.95500
O89         O  0.11768051  0.19612863  0.21211027    -0.77700
O90         O  0.06896190  0.27591497  0.30735129    -0.82900
C91         C  0.09091437  0.30524971  0.20030109     0.98100
C92         C  0.09415358  0.30923310  0.32473128     1.04000
O93         O  0.12444229  0.32863483  0.21693875    -0.78600
C94         C  0.08267764  0.18151144  0.20061002     1.02300
Fe95       Fe  0.33884605  0.09910303  0.23870535     1.65800
Fe96       Fe  0.25101367  0.00980535  0.23388420     1.73200
Fe97       Fe  0.25465545  0.09972179  0.23632107     1.54400
O98         O  0.28667112  0.13641357  0.28696493    -0.82300
O99         O  0.21464143  0.00750951  0.18530950    -0.80600
O100        O  0.34300136  0.13918750  0.28576273    -0.84800
O101        O  0.34416664  0.13779869  0.19103050    -0.79700
O102        O  0.21409816  0.06277926  0.27916999    -0.81500
O103        O  0.28484478  0.00716267  0.18602526    -0.84200
C104        C  0.32358392  0.15153031  0.17769459     0.96600
C105        C  0.32093732  0.15032704  0.30085998     1.04000
O106        O  0.28155216  0.06946267  0.23666256    -1.13200
O107        O  0.28444112  0.00482238  0.28124767    -0.75600
O108        O  0.34053649  0.06345899  0.28584382    -0.79100
O109        O  0.29102441  0.14070941  0.19322861    -0.79800
C110        C  0.31798410  0.02759223  0.29763139     0.95500
O111        O  0.34260352  0.06358742  0.19180064    -0.77700
O112        O  0.21261962  0.00484561  0.28125138    -0.82900
C113        C  0.20693825  0.03239983  0.16912508     0.98100
C114        C  0.20106423  0.02797989  0.29410879     1.04000
O115        O  0.22022920  0.06731261  0.18513968    -0.78600
C116        C  0.31953059  0.02968561  0.17423438     1.02300
C117        C  0.28802884  0.31050396  0.13374650    -0.20900
C118        C  0.29190058  0.33957686  0.10420572    -0.07500
C119        C  0.27088405  0.35920504  0.11261330     0.13400
C120        C  0.24340968  0.34534150  0.14512718    -0.21000
C121        C  0.23745285  0.31420377  0.17220426    -0.07500
C122        C  0.26191931  0.29827051  0.16786289     0.13300
C123        C  0.26154418  0.26895012  0.19940863    -0.24300
H124        H  0.30439443  0.29594733  0.13015002     0.14600
H125        H  0.22644356  0.35936434  0.14954142     0.14700
C126        C  0.27742893  0.39577016  0.08884731    -0.24300
H127        H  0.28544360  0.26340739  0.19386264     0.04900
H128        H  0.23391618  0.23960405  0.19651077     0.08100
H129        H  0.26554997  0.28143909  0.23247947     0.08100
H130        H  0.27223293  0.38778880  0.55241380     0.08100
H131        H  0.30587785  0.42193831  0.09863362     0.08100
H132        H  0.25562671  0.40395952  0.09672207     0.04900
C133        C  0.26977478  0.29739708  0.41495351    -0.20900
C134        C  0.27230926  0.32637836  0.44380649    -0.07500
C135        C  0.25329426  0.34724721  0.43336175     0.13400
C136        C  0.23256958  0.33873922  0.39437652    -0.21000
C137        C  0.22849315  0.30828445  0.36630176    -0.07500
C138        C  0.24796287  0.28762968  0.37666720     0.13300
C139        C  0.24667526  0.25564049  0.34761016    -0.24300
H140        H  0.28391786  0.28129336  0.42312133     0.14600
H141        H  0.21810813  0.35485332  0.38669366     0.14700
C142        C  0.25417150  0.37805681  0.46340600    -0.24300
H143        H  0.26646157  0.24572243  0.35915608     0.04900
H144        H  0.25566472  0.26760443  0.31494171     0.08100
H145        H  0.21711316  0.22858766  0.34640651     0.08100
H146        H  0.28448960  0.40001970  0.47313148     0.08100
H147        H  0.24153663  0.36736520  0.99114241     0.08100
H148        H  0.24157200  0.39465162  0.44847591     0.04900
C149        C  0.32445530  0.47765433  0.39793302    -0.20900
C150        C  0.36507226  0.99039618  0.39895157    -0.07500
C151        C  0.38622297  0.00742769  0.36117268     0.13400
C152        C  0.37036197  0.02022493  0.32933081    -0.21000
C153        C  0.33219738  0.01182212  0.33142809    -0.07500
C154        C  0.30878386  0.98846432  0.36525671     0.13300
C155        C  0.26668243  0.47776590  0.36833683    -0.24300
H156        H  0.30665284  0.46164780  0.42481765     0.14600
H157        H  0.38731085  0.03514963  0.30143805     0.14700
C158        C  0.42224138  0.00719814  0.35008112    -0.24300
H159        H  0.25365300  0.46232751  0.39873448     0.04900
H160        H  0.24891877  0.45705709  0.34164806     0.08100
H161        H  0.26386305  0.00272686  0.36725401     0.08100
H162        H  0.42592512  0.98583909  0.36984352     0.08100
H163        H  0.44797278  0.03804535  0.35297629     0.08100
H164        H  0.41992150  0.99639232  0.31647365     0.04900
C165        C  0.38137287  0.00937344  0.09909474    -0.20900
C166        C  0.35983063  0.99960453  0.06045332    -0.07500
C167        C  0.32252801  0.99528231  0.06165106     0.13400
C168        C  0.31056412  0.00541959  0.09920811    -0.21000
C169        C  0.33310861  0.01707107  0.13678297    -0.07500
C170        C  0.36820548  0.01745308  0.13725934     0.13300
C171        C  0.39108834  0.02488069  0.17827709    -0.24300
H172        H  0.40887571  0.01109997  0.09976180     0.14600
H173        H  0.28288883  0.00364739  0.09929806     0.14700
C174        C  0.29168973  0.47702108  0.02369623    -0.24300
H175        H  0.41615553  0.02103955  0.17349643     0.04900
H176        H  0.37239866  0.00296999  0.20262571     0.08100
H177        H  0.40211991  0.05592942  0.19057426     0.08100
H178        H  0.29813569  0.46006945  0.00036143     0.08100
H179        H  0.29274467  0.00237578  0.50710018     0.08100
H180        H  0.26416794  0.95478915  0.03861159     0.04900
C181        C  0.01996417  0.09061455  0.12680823    -0.20900
C182        C  0.04534566  0.09817872  0.09256031    -0.07500
C183        C  0.08389386  0.13200216  0.09711752     0.13400
C184        C  0.09398918  0.15849264  0.13200435    -0.21000
C185        C  0.06803519  0.15212902  0.16436002    -0.07500
C186        C  0.03079085  0.11714147  0.16244226     0.13300
C187        C  0.00280210  0.10701777  0.19835132    -0.24300
H188        H  0.99151305  0.06392622  0.12652100     0.14600
H189        H  0.12298335  0.18485993  0.13388299     0.14700
C190        C  0.11571111  0.14311440  0.06568217    -0.24300
H191        H  0.97594264  0.07739880  0.19289892     0.04900
H192        H  0.99453578  0.13007353  0.20103672     0.08100
H193        H  0.01627960  0.10574214  0.22901549     0.08100
H194        H  0.12348231  0.17031260  0.54957294     0.08100
H195        H  0.10881671  0.11924464  0.04175756     0.08100
H196        H  0.14243636  0.14930953  0.08299372     0.04900
C197        C  0.09327740  0.14955065  0.38322426    -0.20900
C198        C  0.06571522  0.15306906  0.35911414    -0.07500
C199        C  0.02642288  0.13107791  0.37138828     0.13400
C200        C  0.01634879  0.10741545  0.40818230    -0.21000
C201        C  0.04428804  0.10499884  0.43265361    -0.07500
C202        C  0.08324119  0.12669979  0.42023698     0.13300
C203        C  0.11494903  0.12858102  0.44757197    -0.24300
H204        H  0.12346234  0.16674487  0.37454851     0.14600
H205        H  0.48743264  0.09242256  0.41757135     0.14700
C206        C  0.99486382  0.13187564  0.34602157    -0.24300
H207        H  0.11907568  0.14716943  0.47640007     0.04900
H208        H  0.14297787  0.14304678  0.43087531     0.08100
H209        H  0.10733230  0.09801867  0.45701680     0.08100
H210        H  0.99498292  0.12280529  0.31221125     0.08100
H211        H  0.99908207  0.16244216  0.34741979     0.08100
H212        H  0.46682605  0.11021732  0.35660556     0.04900
C213        C  0.14105568  0.47754215  0.07099877    -0.20900
C214        C  0.13284725  0.50645955  0.05694752    -0.07500
C215        C  0.15195873  0.04364622  0.07693915     0.13400
C216        C  0.17479126  0.05078939  0.11361263    -0.21000
C217        C  0.18175389  0.02141219  0.12994573    -0.07500
C218        C  0.16513428  0.48477533  0.10700409     0.13300
C219        C  0.17511773  0.45349782  0.11789256    -0.24300
H220        H  0.12956837  0.44963801  0.05273178     0.14600
H221        H  0.18784165  0.08025703  0.12896898     0.14700
C222        C  0.14873183  0.07793679  0.06039900    -0.24300
H223        H  0.16092580  0.42713699  0.09548090     0.04900
H224        H  0.16536734  0.44229116  0.15049098     0.08100
H225        H  0.20684403  0.46673078  0.11596772     0.08100
H226        H  0.13560529  0.08695627  0.08568224     0.08100
H227        H  0.13094442  0.07029814  0.03065866     0.08100
H228        H  0.17797122  0.10382845  0.05352116     0.04900
C229        C  0.11409015  0.47062774  0.36983160    -0.20900
C230        C  0.11993002  0.50122728  0.39960218    -0.07500
C231        C  0.15217484  0.03954828  0.39096376     0.13400
C232        C  0.17686825  0.04680765  0.35676533    -0.21000
C233        C  0.17257076  0.01605119  0.32917953    -0.07500
C234        C  0.13995639  0.47782653  0.33617412     0.13300
C235        C  0.13233970  0.44344111  0.30665293    -0.24300
H236        H  0.08980800  0.44043641  0.37260633     0.14600
H237        H  0.20090887  0.07727901  0.35247773     0.14700
C238        C  0.16289403  0.07596324  0.41896086    -0.24300
H239        H  0.10521644  0.41513848  0.31456980     0.04900
H240        H  0.15640222  0.43763851  0.30945344     0.08100
H241        H  0.12962324  0.45090396  0.27307429     0.08100
H242        H  0.19313987  0.08936855  0.93227289     0.08100
H243        H  0.14472036  0.06999548  0.44705836     0.08100
H244        H  0.16132265  0.09879332  0.39943946     0.04900
C245        C  0.08769324  0.34859874  0.43412386    -0.20900
C246        C  0.05086475  0.34460654  0.43165850    -0.07500
C247        C  0.03337702  0.33785000  0.38996180     0.13400
C248        C  0.04802907  0.32579417  0.35609008    -0.21000
C249        C  0.08212957  0.32516598  0.36068103    -0.07500
C250        C  0.10347204  0.33911496  0.39948210     0.13300
C251        C  0.14220303  0.34267335  0.40525018    -0.24300
H252        H  0.10470838  0.35920559  0.46350155     0.10800
H253        H  0.03335117  0.31787106  0.32506687     0.14700
C254        C  0.00193444  0.34608899  0.37829559    -0.24300
H255        H  0.15417650  0.35252498  0.43829655     0.04900
H256        H  0.16320274  0.36538220  0.38301462     0.08100
H257        H  0.13938034  0.31310358  0.39871373     0.08100
H258        H  0.97552530  0.32700184  0.39582429     0.08100
H259        H  0.49236043  0.33830482  0.34281883     0.08100
H260        H  0.01220855  0.37830916  0.38411438     0.04900
C261        C  0.06358700  0.36490611  0.12570590    -0.20900
C262        C  0.04303731  0.33631636  0.09225197    -0.07500
C263        C  0.03769121  0.29717490  0.09687275     0.13400
C264        C  0.05503104  0.28938162  0.13147231    -0.21000
C265        C  0.07642110  0.31821731  0.16350799    -0.07500
C266        C  0.07978150  0.35616776  0.16127943     0.13300
C267        C  0.09833474  0.38657753  0.19751316    -0.24300
H268        H  0.06642977  0.39404784  0.12542588     0.14600
H269        H  0.05137591  0.25972373  0.13362705     0.14700
C270        C  0.51715951  0.26169193  0.06447433    -0.24300
H271        H  0.09782805  0.41439686  0.19124419     0.04900
H272        H  0.12891987  0.39522468  0.20224383     0.08100
H273        H  0.08253617  0.37343231  0.22752527     0.08100
H274        H  0.03351180  0.25259222  0.05202627     0.08100
H275        H  0.50128294  0.26692592  0.03902553     0.08100
H276        H  0.49552436  0.23491983  0.08216123     0.04900
C277        C  0.30831349  0.17776445  0.36632583    -0.20900
C278        C  0.33512743  0.18036182  0.33656654    -0.07500
C279        C  0.37401247  0.21223848  0.34072944     0.13400
C280        C  0.38545844  0.23857150  0.37627590    -0.21000
C281        C  0.35955481  0.23366497  0.40884952    -0.07500
C282        C  0.31957489  0.20378109  0.40212864     0.13300
C283        C  0.28789399  0.19797174  0.43204979    -0.24300
H284        H  0.27818069  0.15423164  0.36217641     0.14600
H285        H  0.41507847  0.26303971  0.37787077     0.14700
C286        C  0.40357346  0.21961059  0.30734366    -0.24300
H287        H  0.25873688  0.17505546  0.41930352     0.04900
H288        H  0.28778026  0.22612128  0.43610650     0.08100
H289        H  0.29076451  0.18727080  0.46371166     0.08100
H290        H  0.39309814  0.22270937  0.27542055     0.08100
H291        H  0.40897054  0.19438776  0.30643349     0.08100
H292        H  0.43179003  0.24760176  0.31429919     0.04900
C293        C  0.33262650  0.22496006  0.09138546    -0.20900
C294        C  0.36398396  0.22907756  0.06877669    -0.07500
C295        C  0.38199970  0.20802551  0.08185320     0.13400
C296        C  0.36973918  0.18530345  0.11904727    -0.21000
C297        C  0.33761479  0.18015027  0.14161752    -0.07500
C298        C  0.31851334  0.20018423  0.12707556     0.13300
C299        C  0.28253058  0.19494513  0.14736271    -0.24300
H300        H  0.31733579  0.23895575  0.07919694     0.14600
H301        H  0.38404790  0.16951037  0.12893886     0.14700
C302        C  0.41258496  0.20747902  0.05538044    -0.24300
H303        H  0.27271500  0.21392691  0.13212573     0.04900
H304        H  0.28827287  0.20364498  0.18181230     0.08100
H305        H  0.25843736  0.16320400  0.14352577     0.08100
H306        H  0.43621944  0.23852103  0.04970805     0.08100
H307        H  0.40006010  0.19233877  0.02402587     0.08100
H308        H  0.42485593  0.19101680  0.07131031     0.04900
C309        C  0.37462772  0.25738209  0.95088617     0.85800
C310        C  0.35872268  0.28539545  0.95803095    -0.54400
C311        C  0.36836610  0.30618029  0.49702560     0.08800
C312        C  0.39514778  0.29743272  0.52466013     0.19700
C313        C  0.41873873  0.28499037  0.95779431    -0.55100
C314        C  0.42981640  0.30711722  0.49575764     0.08900
C315        C  0.36318226  0.23056045  0.99007723    -0.54600
C316        C  0.37298248  0.25124840  0.52788674     0.09400
H317        H  0.34070674  0.28844618  0.93446856     0.14000
H318        H  0.40363777  0.31334612  0.55625663    -0.00300
H319        H  0.43959283  0.28180901  0.93992119     0.14300
H320        H  0.34798073  0.19888238  0.48699149     0.14100
C321        C  0.02932400  0.34763840  0.55284325     0.85800
C322        C  0.04081363  0.39205818  0.54745613    -0.54400
C323        C  0.02957946  0.39965070  0.00708009     0.08800
C324        C  0.00471411  0.36162684  0.97914767     0.19700
C325        C  0.48455536  0.32414487  0.54671886    -0.55100
C326        C  0.47150995  0.33035386  0.00872996     0.08900
C327        C  0.04319890  0.33729847  0.01068003    -0.54600
C328        C  0.03176364  0.34509379  0.97218428     0.09400
H329        H  0.06073540  0.41650974  0.56852534     0.14000
H330        H  0.49314892  0.36797415  0.95087948    -0.00300
H331        H  0.46533514  0.30343598  0.57043449     0.14300
H332        H  0.06196936  0.32516574  0.01302066     0.14100
C333        C  0.09781392  0.49140321  0.94016272     0.85800
C334        C  0.06771229  0.44682615  0.94921698    -0.54400
C335        C  0.05021277  0.44045438  0.49062743     0.08800
C336        C  0.06474253  0.47948088  0.51700413     0.19700
C337        C  0.07496689  0.51286547  0.94707801    -0.55100
C338        C  0.05750011  0.50702287  0.48801630     0.08900
C339        C  0.12609885  0.50384069  0.97849513    -0.54600
C340        C  0.10869102  0.49827341  0.51877753     0.09400
H341        H  0.06262196  0.42179240  0.92912556     0.14000
H342        H  0.05169379  0.47465426  0.54913137    -0.00300
H343        H  0.07397664  0.03145347  0.92386776     0.14300
H344        H  0.15631104  0.01221601  0.47474607     0.14100
C345        C  0.03109027  0.07316302  0.55012657     0.85800
C346        C  0.48712697  0.04388229  0.54277427    -0.54400
C347        C  0.47777605  0.02508424  0.00455314     0.08800
C348        C  0.01231517  0.03555329  0.97584686     0.19700
C349        C  0.04873251  0.04697366  0.54187845    -0.55100
C350        C  0.04036883  0.02837704  0.00291568     0.08900
C351        C  0.04171792  0.10113048  0.51160093    -0.54600
C352        C  0.03259130  0.08149024  0.97308257     0.09400
H353        H  0.46509925  0.04077164  0.56420110     0.14000
H354        H  0.50492476  0.52139299  0.94334651    -0.00300
H355        H  0.06719507  0.04421335  0.56518195     0.14300
H356        H  0.05502481  0.13318520  0.01454242     0.14100
C357        C  0.38111153  0.48474921  0.94136406     0.85800
C358        C  0.42585318  0.00824307  0.95000201    -0.54400
C359        C  0.43488374  0.50124310  0.48930973     0.08800
C360        C  0.40014462  0.47338257  0.51773050     0.19700
C361        C  0.36681738  0.44068374  0.95141449    -0.55100
C362        C  0.37573575  0.43448492  0.49094445     0.08900
C363        C  0.36767641  0.50057921  0.97887830    -0.54600
C364        C  0.37453885  0.49211272  0.51930548     0.09400
H365        H  0.44679128  0.02869034  0.92783221     0.14000
H366        H  0.40892474  0.46795559  0.54950515    -0.00300
H367        H  0.34749444  0.41601240  0.92987745     0.14300
H368        H  0.35369838  0.01768423  0.47461174     0.14100
C369        C  0.31153015  0.34458212  0.56076533     0.85800
C370        C  0.33430345  0.32308909  0.55281451    -0.54400
C371        C  0.34933927  0.32731227  0.01253863     0.08800
C372        C  0.34151253  0.35486269  0.98426276     0.19700
C373        C  0.34135936  0.38845888  0.55046473    -0.55100
C374        C  0.35740512  0.39436173  0.01055783     0.08900
C375        C  0.28129139  0.32923101  0.52367975    -0.54600
C376        C  0.29757216  0.33638354  0.98414300     0.09400
H377        H  0.33899516  0.30585552  0.57623286     0.14000
H378        H  0.35358024  0.35916182  0.95165947    -0.00300
H379        H  0.34923416  0.41326591  0.57258527     0.14300
H380        H  0.25192926  0.31771751  0.02900581     0.14100
Fe381      Fe  0.15133736  0.22926291  0.76406181     1.65800
Fe382      Fe  0.06980353  0.23458291  0.76258965     1.73200
Fe383      Fe  0.15928069  0.32115062  0.76445854     1.54400
O384        O  0.19721646  0.32227369  0.81156278    -0.82300
O385        O  0.06978508  0.26766371  0.71201501    -0.80600
O386        O  0.18521388  0.25971413  0.81637319    -0.84800
O387        O  0.19500297  0.26605980  0.72289821    -0.79700
O388        O  0.12895114  0.32723534  0.81331616    -0.81500
O389        O  0.06217850  0.19013636  0.71899792    -0.84200
C390        C  0.20753564  0.30013824  0.70620224     0.96600
C391        C  0.20255850  0.29602587  0.82925628     1.04000
O392        O  0.12682418  0.26177614  0.76357458    -1.13200
O393        O  0.06387552  0.19879708  0.81326915    -0.75600
O394        O  0.11189568  0.18739668  0.80539941    -0.79100
O395        O  0.19426867  0.32242521  0.71608334    -0.79800
C396        C  0.08121387  0.18068105  0.82344859     0.95500
O397        O  0.11943479  0.19555522  0.71212628    -0.77700
O398        O  0.06890877  0.27466117  0.80610511    -0.82900
C399        C  0.09180437  0.30359249  0.70013845     0.98100
C400        C  0.09389735  0.30762758  0.82419858     1.04000
O401        O  0.12482552  0.32720514  0.71776690    -0.78600
C402        C  0.08422451  0.18030865  0.70111860     1.02300
Fe403      Fe  0.33907692  0.09827551  0.73733797     1.65800
Fe404      Fe  0.25113279  0.00877046  0.73378046     1.73200
Fe405      Fe  0.25471115  0.09867103  0.73527585     1.54400
O406        O  0.28853773  0.13753801  0.78411038    -0.82300
O407        O  0.21510014  0.00557509  0.68431837    -0.80600
O408        O  0.34354535  0.13747588  0.78572523    -0.84800
O409        O  0.34431122  0.13800378  0.69073093    -0.79700
O410        O  0.21608697  0.06363642  0.78048608    -0.81500
O411        O  0.28532835  0.00533978  0.68677193    -0.84200
C412        C  0.32271554  0.14989908  0.67573417     0.96600
C413        C  0.32207794  0.14989756  0.79957794     1.04000
O414        O  0.28169560  0.06850422  0.73576276    -1.13200
O415        O  0.28417230  0.00460606  0.78209758    -0.75600
O416        O  0.34143450  0.06200827  0.78337536    -0.79100
O417        O  0.28928430  0.13743542  0.68965227    -0.79800
C418        C  0.31837957  0.02693688  0.79693069     0.95500
O419        O  0.34205114  0.06331011  0.68926792    -0.77700
O420        O  0.21230535  0.00450599  0.78039753    -0.82900
C421        C  0.20584678  0.02966864  0.66930162     0.98100
C422        C  0.20207998  0.02840400  0.79455669     1.04000
O423        O  0.21812345  0.06412640  0.68614685    -0.78600
C424        C  0.31934688  0.02852208  0.67334273     1.02300
C425        C  0.28952399  0.31220491  0.63485605    -0.20900
C426        C  0.29106833  0.33927730  0.60398410    -0.07500
C427        C  0.26885447  0.35765076  0.61183721     0.13400
C428        C  0.24197069  0.34378150  0.64485073    -0.21000
C429        C  0.23812841  0.31427881  0.67312999    -0.07500
C430        C  0.26420919  0.30032632  0.66968107     0.13300
C431        C  0.26653392  0.27385020  0.70308371    -0.24300
H432        H  0.30734752  0.29924454  0.63204346     0.14600
H433        H  0.22385164  0.35653492  0.64874481     0.14700
C434        C  0.27373663  0.39312353  0.58721554    -0.24300
H435        H  0.29139647  0.26976437  0.69788808     0.04900
H436        H  0.23984227  0.24360025  0.70209804     0.08100
H437        H  0.27065263  0.28796863  0.73534207     0.08100
H438        H  0.27602223  0.39104133  0.05386349     0.08100
H439        H  0.30184857  0.42008082  0.59633932     0.08100
H440        H  0.25121138  0.40032760  0.59488471     0.04900
C441        C  0.26984797  0.29673475  0.91682048    -0.20900
C442        C  0.27364628  0.32715109  0.94432327    -0.07500
C443        C  0.25545984  0.34860596  0.93295062     0.13400
C444        C  0.23411646  0.33915052  0.89430307    -0.21000
C445        C  0.22907669  0.30757318  0.86730562    -0.07500
C446        C  0.24796387  0.28650440  0.87857285     0.13300
C447        C  0.24614516  0.25369366  0.85046725    -0.24300
H448        H  0.28309931  0.27995147  0.92602848     0.14600
H449        H  0.22010394  0.35559771  0.88598196     0.14700
C450        C  0.25793573  0.38104358  0.96171631    -0.24300
H451        H  0.26561949  0.24358961  0.86260482     0.04900
H452        H  0.25527173  0.26496543  0.81758962     0.08100
H453        H  0.21640828  0.22692515  0.84960092     0.08100
H454        H  0.28858942  0.40281833  0.97015773     0.08100
H455        H  0.23680779  0.36269317  0.49179145     0.08100
H456        H  0.24538368  0.39746789  0.94627346     0.04900
C457        C  0.32470998  0.47711045  0.89818461    -0.20900
C458        C  0.36511600  0.99096699  0.89984627    -0.07500
C459        C  0.38572229  0.00587124  0.86132662     0.13400
C460        C  0.37003521  0.01820992  0.82875337    -0.21000
C461        C  0.33251626  0.01163993  0.83132010    -0.07500
C462        C  0.30952992  0.99060973  0.86640937     0.13300
C463        C  0.26680977  0.47732452  0.86887862    -0.24300
H464        H  0.30715606  0.46151875  0.92529686     0.14600
H465        H  0.38657184  0.03142778  0.80014932     0.14700
C466        C  0.42105833  0.00415084  0.85065408    -0.24300
H467        H  0.25371981  0.46159473  0.89912796     0.04900
H468        H  0.24907902  0.45693987  0.84196495     0.08100
H469        H  0.26747138  0.00888581  0.86856088     0.08100
H470        H  0.42509600  0.98408866  0.87220543     0.08100
H471        H  0.44709281  0.03490902  0.85122612     0.08100
H472        H  0.41750742  0.99090761  0.81800189     0.04900
C473        C  0.38099944  0.00818619  0.59821127    -0.20900
C474        C  0.35969381  0.99893147  0.55943759    -0.07500
C475        C  0.32246540  0.99477880  0.56052369     0.13400
C476        C  0.31020316  0.00428354  0.59828662    -0.21000
C477        C  0.33260370  0.01556512  0.63594080    -0.07500
C478        C  0.36767157  0.01594574  0.63642297     0.13300
C479        C  0.39039998  0.02318558  0.67751694    -0.24300
H480        H  0.40842518  0.00978773  0.59896816     0.14600
H481        H  0.28259867  0.00264809  0.59838712     0.14700
C482        C  0.29070352  0.47589879  0.52485514    -0.24300
H483        H  0.41563519  0.01963328  0.67273565     0.04900
H484        H  0.37167930  0.00099600  0.70163566     0.08100
H485        H  0.40110699  0.05407685  0.69012466     0.08100
H486        H  0.29715675  0.45916239  0.50119369     0.08100
H487        H  0.29017502  0.00114559  0.00985660     0.08100
H488        H  0.26392073  0.95679462  0.53639604     0.04900
C489        C  0.02044079  0.09044148  0.62664251    -0.20900
C490        C  0.04568617  0.09793965  0.59231097    -0.07500
C491        C  0.08456168  0.13112354  0.59708839     0.13400
C492        C  0.09515832  0.15723126  0.63237079    -0.21000
C493        C  0.06938749  0.15097226  0.66488209    -0.07500
C494        C  0.03178321  0.11649661  0.66271079     0.13300
C495        C  0.00390911  0.10640697  0.69874831    -0.24300
H496        H  0.99169205  0.06417530  0.62605210     0.14600
H497        H  0.12435973  0.18322920  0.63437810     0.14700
C498        C  0.11627873  0.14192072  0.56556148    -0.24300
H499        H  0.97686469  0.07701178  0.69314324     0.04900
H500        H  0.99596416  0.12968265  0.70184851     0.08100
H501        H  0.01729388  0.10463462  0.72925379     0.08100
H502        H  0.12224306  0.17110311  0.04924287     0.08100
H503        H  0.10896075  0.11827156  0.54120590     0.08100
H504        H  0.14274764  0.14721176  0.58275173     0.04900
C505        C  0.09416844  0.14922465  0.88428823    -0.20900
C506        C  0.06672070  0.15209071  0.85921686    -0.07500
C507        C  0.02719405  0.12936413  0.87035315     0.13400
C508        C  0.01671123  0.10583639  0.90722225    -0.21000
C509        C  0.04445344  0.10410741  0.93279488    -0.07500
C510        C  0.08366916  0.12625564  0.92125520     0.13300
C511        C  0.11517366  0.12888182  0.94961032    -0.24300
H512        H  0.12451422  0.16700463  0.87638705     0.14600
H513        H  0.48818978  0.09248688  0.91905225     0.14700
C514        C  0.99583944  0.12928786  0.84364420    -0.24300
H515        H  0.11966062  0.14902211  0.97711862     0.04900
H516        H  0.14310607  0.14212101  0.93285733     0.08100
H517        H  0.10727089  0.09872925  0.96101703     0.08100
H518        H  0.99711735  0.12047442  0.81004364     0.08100
H519        H  0.99925039  0.15950731  0.84462979     0.08100
H520        H  0.46715836  0.10983285  0.85816619     0.04900
C521        C  0.14024982  0.47736075  0.57198323    -0.20900
C522        C  0.13174361  0.50622665  0.55843935    -0.07500
C523        C  0.14961043  0.04074307  0.57847263     0.13400
C524        C  0.17183162  0.04726820  0.61549023    -0.21000
C525        C  0.18027791  0.01852345  0.63034533    -0.07500
C526        C  0.16457217  0.48455423  0.60776142     0.13300
C527        C  0.17514949  0.45360985  0.61802468    -0.24300
H528        H  0.12887753  0.44961394  0.55345566     0.14600
H529        H  0.18362781  0.07605961  0.63203684     0.14700
C530        C  0.14605916  0.07511166  0.56297190    -0.24300
H531        H  0.16129921  0.42751493  0.59525084     0.04900
H532        H  0.16544535  0.44191387  0.65048276     0.08100
H533        H  0.20694337  0.46734376  0.61615607     0.08100
H534        H  0.13190360  0.08289682  0.58822256     0.08100
H535        H  0.12926372  0.06828959  0.53258988     0.08100
H536        H  0.17529647  0.10160433  0.55749581     0.04900
C537        C  0.11414316  0.47120963  0.86781723    -0.20900
C538        C  0.12093440  0.50162316  0.89828870    -0.07500
C539        C  0.15277957  0.04018260  0.89112745     0.13400
C540        C  0.17761717  0.04741793  0.85705424    -0.21000
C541        C  0.17362947  0.01659267  0.82973962    -0.07500
C542        C  0.13974643  0.47827725  0.83407557     0.13300
C543        C  0.13082524  0.44452524  0.80291259    -0.24300
H544        H  0.08910793  0.44139923  0.86985013     0.14600
H545        H  0.20152756  0.07795752  0.85268013     0.14700
C546        C  0.16333460  0.07661263  0.91902673    -0.24300
H547        H  0.10317751  0.41653774  0.81019293     0.04900
H548        H  0.15409944  0.43745550  0.80441110     0.08100
H549        H  0.12839425  0.45347847  0.76991909     0.08100
H550        H  0.19304459  0.08921549  0.43128779     0.08100
H551        H  0.14445755  0.07077861  0.94642335     0.08100
H552        H  0.16263621  0.09978462  0.89921891     0.04900
C553        C  0.08611076  0.34583140  0.93347816    -0.20900
C554        C  0.04966838  0.34264861  0.93044985    -0.07500
C555        C  0.03275757  0.33647567  0.88846158     0.13400
C556        C  0.04768270  0.32456869  0.85470149    -0.21000
C557        C  0.08141601  0.32329751  0.85987843    -0.07500
C558        C  0.10208410  0.33632864  0.89912016     0.13300
C559        C  0.14033143  0.33890466  0.90564965    -0.24300
H560        H  0.10278887  0.35595814  0.96311192     0.10800
H561        H  0.03355118  0.31726671  0.82338607     0.14700
C562        C  0.00165866  0.34512844  0.87647400    -0.24300
H563        H  0.15165964  0.34792041  0.93902697     0.04900
H564        H  0.16208529  0.36183268  0.88417083     0.08100
H565        H  0.13705135  0.30919130  0.89866948     0.08100
H566        H  0.97520062  0.32632019  0.89394677     0.08100
H567        H  0.49175701  0.33677360  0.84270517     0.08100
H568        H  0.01226181  0.37744785  0.88223278     0.04900
C569        C  0.06443000  0.36410520  0.62689301    -0.20900
C570        C  0.04401538  0.33599852  0.59306632    -0.07500
C571        C  0.03932956  0.29700600  0.59652240     0.13400
C572        C  0.05665724  0.28878079  0.63081597    -0.21000
C573        C  0.07758071  0.31704310  0.66348615    -0.07500
C574        C  0.08085277  0.35500742  0.66197207     0.13300
C575        C  0.09984421  0.38520036  0.69832318    -0.24300
H576        H  0.06720892  0.39323324  0.62709882     0.14600
H577        H  0.05337885  0.25925103  0.63220735     0.14700
C578        C  0.51462240  0.26132550  0.56530472    -0.24300
H579        H  0.09918531  0.41301893  0.69264937     0.04900
H580        H  0.13052184  0.39392755  0.70229644     0.08100
H581        H  0.08451357  0.37186448  0.72852193     0.08100
H582        H  0.03679636  0.25439273  0.55000011     0.08100
H583        H  0.50031072  0.26752964  0.53889859     0.08100
H584        H  0.49170753  0.23539775  0.58292557     0.04900
C585        C  0.30911597  0.17562890  0.86627404    -0.20900
C586        C  0.33595623  0.17936130  0.83591632    -0.07500
C587        C  0.37457952  0.21174984  0.84015121     0.13400
C588        C  0.38577020  0.23766393  0.87611076    -0.21000
C589        C  0.35982453  0.23203442  0.90898612    -0.07500
C590        C  0.32005838  0.20143768  0.90232248     0.13300
C591        C  0.28823579  0.19510880  0.93226325    -0.24300
H592        H  0.27915300  0.15157369  0.86213419     0.14600
H593        H  0.41520968  0.26260831  0.87764171     0.14700
C594        C  0.40398773  0.22012034  0.80624404    -0.24300
H595        H  0.25924612  0.17146734  0.91980605     0.04900
H596        H  0.28739452  0.22294258  0.93576728     0.08100
H597        H  0.29159675  0.18509014  0.96411755     0.08100
H598        H  0.39310437  0.22352209  0.77472297     0.08100
H599        H  0.40974493  0.19517994  0.80432191     0.08100
H600        H  0.43205361  0.24825284  0.81336789     0.04900
C601        C  0.33331820  0.22593580  0.59216678    -0.20900
C602        C  0.36343255  0.22881742  0.56804126    -0.07500
C603        C  0.38014596  0.20598669  0.57920053     0.13400
C604        C  0.36735668  0.18203209  0.61552801    -0.21000
C605        C  0.33670753  0.17851918  0.63977253    -0.07500
C606        C  0.31933760  0.20090136  0.62765645     0.13300
C607        C  0.28571209  0.19848804  0.65091541    -0.24300
H608        H  0.31895750  0.24136649  0.58157205     0.14600
H609        H  0.38030145  0.16450433  0.62378599     0.14700
C610        C  0.41052892  0.20570818  0.55207044    -0.24300
H611        H  0.27753936  0.21957926  0.63777774     0.04900
H612        H  0.29342911  0.20637092  0.68532267     0.08100
H613        H  0.25983736  0.16775911  0.64730514     0.08100
H614        H  0.43467535  0.23687077  0.54789762     0.08100
H615        H  0.39822599  0.19207688  0.52011537     0.08100
H616        H  0.42205073  0.18802680  0.56675869     0.04900
C617        C  0.37495258  0.75768169  0.45203386     0.85800
C618        C  0.35952413  0.78615425  0.45842037    -0.54400
C619        C  0.36917864  0.80663560  0.99675569     0.08800
C620        C  0.39559478  0.79781531  0.02485462     0.19700
C621        C  0.41905284  0.78485836  0.45914047    -0.55100
C622        C  0.43005851  0.80663630  0.99619233     0.08900
C623        C  0.36299041  0.73113927  0.49141596    -0.54600
C624        C  0.37303481  0.75172793  0.02882736     0.09400
H625        H  0.34170320  0.78920424  0.43457284     0.14000
H626        H  0.40426807  0.81418355  0.05619667    -0.00300
H627        H  0.43991386  0.78128341  0.44171683     0.14300
H628        H  0.34793250  0.69876318  0.98883015     0.14100
C629        C  0.02849013  0.84678483  0.05131905     0.85800
C630        C  0.04075598  0.89128640  0.04556121    -0.54400
C631        C  0.02863983  0.89873964  0.50722706     0.08800
C632        C  0.00378591  0.86077973  0.47936461     0.19700
C633        C  0.48486782  0.82374998  0.04700950    -0.55100
C634        C  0.47190150  0.83076858  0.50938729     0.08900
C635        C  0.04380622  0.83745517  0.50906151    -0.54600
C636        C  0.03134617  0.84508278  0.47121850     0.09400
H637        H  0.06131236  0.91571781  0.06618288     0.14000
H638        H  0.49268804  0.86811732  0.45125218    -0.00300
H639        H  0.46583605  0.80339285  0.07106658     0.14300
H640        H  0.06359373  0.82647572  0.51026602     0.14100
C641        C  0.09737298  0.98961814  0.44005900     0.85800
C642        C  0.06620216  0.94536676  0.44883365    -0.54400
C643        C  0.05112116  0.93968167  0.98904498     0.08800
C644        C  0.06640631  0.97862257  0.01581383     0.19700
C645        C  0.07548458  0.01205736  0.44734219    -0.55100
C646        C  0.05952790  0.00657113  0.98725652     0.08900
C647        C  0.12567399  0.00107309  0.47823631    -0.54600
C648        C  0.11028007  0.99684714  0.01736200     0.09400
H649        H  0.05949462  0.92029267  0.42797691     0.14000
H650        H  0.05350023  0.97386994  0.04801359    -0.00300
H651        H  0.07201918  0.53173369  0.42458578     0.14300
H652        H  0.15687297  0.51563169  0.97526177     0.14100
C653        C  0.03036338  0.57345354  0.05014722     0.85800
C654        C  0.48713898  0.54410245  0.04316376    -0.54400
C655        C  0.47589824  0.52465522  0.50467618     0.08800
C656        C  0.01093695  0.53675829  0.47571138     0.19700
C657        C  0.04826705  0.54752689  0.04166243    -0.55100
C658        C  0.03841385  0.52906690  0.50324496     0.08900
C659        C  0.04065514  0.60135537  0.01159653    -0.54600
C660        C  0.03161456  0.58277317  0.47304266     0.09400
H661        H  0.46524008  0.54113543  0.06473612     0.14000
H662        H  0.50518558  0.02114081  0.44310022    -0.00300
H663        H  0.06719767  0.54516327  0.06468460     0.14300
H664        H  0.05389181  0.63440149  0.51455188     0.14100
C665        C  0.38174378  0.98572817  0.44150645     0.85800
C666        C  0.42422580  0.50710669  0.44972399    -0.54400
C667        C  0.43667096  0.00226917  0.98948116     0.08800
C668        C  0.40201696  0.97470121  0.01822263     0.19700
C669        C  0.36663155  0.94138594  0.45100672    -0.55100
C670        C  0.37728458  0.93589075  0.99143241     0.08900
C671        C  0.36878779  0.00164380  0.47936467    -0.54600
C672        C  0.37675590  0.99382331  0.02014983     0.09400
H673        H  0.44528516  0.52814497  0.42804159     0.14000
H674        H  0.41080157  0.96912654  0.04992353    -0.00300
H675        H  0.34686442  0.91702415  0.42940446     0.14300
H676        H  0.35236024  0.51633947  0.97375880     0.14100
C677        C  0.31241767  0.84540378  0.05993728     0.85800
C678        C  0.33504110  0.82373817  0.05210797    -0.54400
C679        C  0.34959544  0.82805095  0.51207887     0.08800
C680        C  0.34138822  0.85506813  0.48330270     0.19700
C681        C  0.34261176  0.88936283  0.05037164    -0.55100
C682        C  0.35640262  0.89441855  0.50955126     0.08900
C683        C  0.28273781  0.83072091  0.02232849    -0.54600
C684        C  0.29732211  0.83591064  0.48253458     0.09400
H685        H  0.33925701  0.80611746  0.07542459     0.14000
H686        H  0.35385958  0.85965172  0.45088554    -0.00300
H687        H  0.35017108  0.91399664  0.07264779     0.14300
H688        H  0.25110314  0.81642459  0.52676154     0.14100
Fe689      Fe  0.15076432  0.72998836  0.26321932     1.65800
Fe690      Fe  0.06940615  0.73600864  0.26178275     1.73200
Fe691      Fe  0.15934718  0.82236416  0.26298232     1.54400
O692        O  0.19657502  0.82349843  0.31091947    -0.82300
O693        O  0.06941148  0.76962769  0.21198446    -0.80600
O694        O  0.18633062  0.76153747  0.31388297    -0.84800
O695        O  0.19321900  0.76526261  0.22008896    -0.79700
O696        O  0.12867076  0.82947288  0.31092046    -0.81500
O697        O  0.06138522  0.69199025  0.21734224    -0.84200
C698        C  0.20687164  0.79991928  0.20436835     0.96600
C699        C  0.20292478  0.79753627  0.32751594     1.04000
O700        O  0.12652984  0.76288799  0.26253373    -1.13200
O701        O  0.06286973  0.69940889  0.31176965    -0.75600
O702        O  0.11229500  0.68993607  0.30662555    -0.79100
O703        O  0.19498400  0.82315792  0.21549363    -0.79800
C704        C  0.08092585  0.68249844  0.32356974     0.95500
O705        O  0.11760608  0.69471495  0.21287383    -0.77700
O706        O  0.06905609  0.77587200  0.30606264    -0.82900
C707        C  0.09196617  0.80494292  0.19889434     0.98100
C708        C  0.09391241  0.80961983  0.32286673     1.04000
O709        O  0.12557616  0.82825237  0.21534404    -0.78600
C710        C  0.08290143  0.68079999  0.20075729     1.02300
Fe711      Fe  0.33824546  0.59861365  0.23783059     1.65800
Fe712      Fe  0.24989915  0.50966582  0.23377379     1.73200
Fe713      Fe  0.25431562  0.59999306  0.23681573     1.54400
O714        O  0.28788519  0.63727139  0.28663664    -0.82300
O715        O  0.21384543  0.50766885  0.18501753    -0.80600
O716        O  0.34299547  0.63738438  0.28672532    -0.84800
O717        O  0.34383867  0.63894469  0.19193158    -0.79700
O718        O  0.21471940  0.56398601  0.28105112    -0.81500
O719        O  0.28380357  0.50660777  0.18574599    -0.84200
C720        C  0.32285792  0.65193575  0.17788632     0.96600
C721        C  0.32160051  0.64952833  0.30149165     1.04000
O722        O  0.28086204  0.56934591  0.23646667    -1.13200
O723        O  0.28307720  0.50449672  0.28138896    -0.75600
O724        O  0.34043276  0.56174070  0.28323590    -0.79100
O725        O  0.28972889  0.64008589  0.19241155    -0.79800
C726        C  0.31731727  0.52650655  0.29634795     0.95500
O727        O  0.34092309  0.56406645  0.18906290    -0.77700
O728        O  0.21117266  0.50497993  0.28119604    -0.82900
C729        C  0.20546834  0.53237526  0.16977180     0.98100
C730        C  0.20069276  0.52875991  0.29521922     1.04000
O731        O  0.21831731  0.56696196  0.18657662    -0.78600
C732        C  0.31797473  0.52964494  0.17248408     1.02300
C733        C  0.28901425  0.81180717  0.13329623    -0.20900
C734        C  0.29129360  0.83953270  0.10282301    -0.07500
C735        C  0.26910616  0.85795082  0.11059360     0.13400
C736        C  0.24180604  0.84379934  0.14323447    -0.21000
C737        C  0.23739053  0.81383034  0.17117299    -0.07500
C738        C  0.26315247  0.79949604  0.16764292     0.13300
C739        C  0.26455054  0.77213583  0.20054798    -0.24300
H740        H  0.30664584  0.79862742  0.13051761     0.14600
H741        H  0.22384449  0.85673700  0.14717478     0.14700
C742        C  0.27445271  0.89376402  0.08627892    -0.24300
H743        H  0.28947293  0.76810064  0.19574255     0.04900
H744        H  0.23773817  0.74200104  0.19854346     0.08100
H745        H  0.26805119  0.78551260  0.23309140     0.08100
H746        H  0.27269565  0.88832437  0.55087547     0.08100
H747        H  0.30244198  0.92061522  0.09601225     0.08100
H748        H  0.25179133  0.90085236  0.09361842     0.04900
C749        C  0.27100871  0.79805306  0.41388101    -0.20900
C750        C  0.27383541  0.82736359  0.44243273    -0.07500
C751        C  0.25511452  0.84848679  0.43179577     0.13400
C752        C  0.23393043  0.83954727  0.39314514    -0.21000
C753        C  0.22963596  0.80887644  0.36528626    -0.07500
C754        C  0.24922770  0.78829755  0.37559162     0.13300
C755        C  0.24818838  0.75645429  0.34649996    -0.24300
H756        H  0.28489701  0.78170019  0.42225797     0.14600
H757        H  0.21931067  0.85555483  0.38556801     0.14700
C758        C  0.25663935  0.87994038  0.46134130    -0.24300
H759        H  0.26808818  0.74668420  0.35806677     0.04900
H760        H  0.25724164  0.76852824  0.31388189     0.08100
H761        H  0.21870632  0.72928621  0.34518799     0.08100
H762        H  0.28700059  0.90138282  0.47130489     0.08100
H763        H  0.24109370  0.86736633  0.98874531     0.08100
H764        H  0.24481826  0.89705189  0.44589653     0.04900
C765        C  0.32552137  0.97817840  0.39836817    -0.20900
C766        C  0.36387464  0.48944215  0.39874844    -0.07500
C767        C  0.38509961  0.50589066  0.36082380     0.13400
C768        C  0.36938400  0.51840244  0.32842427    -0.21000
C769        C  0.33143301  0.51073729  0.33042567    -0.07500
C770        C  0.30811068  0.48840785  0.36482042     0.13300
C771        C  0.26673742  0.97582143  0.36788311    -0.24300
H772        H  0.30788528  0.96195469  0.42522841     0.14600
H773        H  0.38635964  0.53275603  0.30036873     0.14700
C774        C  0.42131428  0.50577750  0.35041046    -0.24300
H775        H  0.25352461  0.95942813  0.39778365     0.04900
H776        H  0.25010903  0.95529273  0.34058205     0.08100
H777        H  0.26524874  0.50553207  0.36740493     0.08100
H778        H  0.42564133  0.48553161  0.37133950     0.08100
H779        H  0.44679231  0.53688585  0.35207869     0.08100
H780        H  0.41876985  0.49365398  0.31736882     0.04900
C781        C  0.37983838  0.50891712  0.09767310    -0.20900
C782        C  0.35845371  0.49891197  0.05891107    -0.07500
C783        C  0.32121203  0.49486739  0.05979285     0.13400
C784        C  0.30909039  0.50516353  0.09722275    -0.21000
C785        C  0.33144099  0.51683089  0.13495398    -0.07500
C786        C  0.36659787  0.51731943  0.13560328     0.13300
C787        C  0.38964760  0.52546556  0.17661984    -0.24300
H788        H  0.40736076  0.51070235  0.09860440     0.14600
H789        H  0.28148807  0.50352829  0.09708988     0.14700
C790        C  0.29281035  0.97723106  0.02575303    -0.24300
H791        H  0.41464180  0.52145802  0.17213135     0.04900
H792        H  0.37105991  0.50406958  0.20139317     0.08100
H793        H  0.40079790  0.55675852  0.18817953     0.08100
H794        H  0.29938053  0.96052721  0.00218660     0.08100
H795        H  0.28848848  0.50010345  0.50904399     0.08100
H796        H  0.26288675  0.45481392  0.03640108     0.04900
C797        C  0.01965305  0.59057984  0.12672571    -0.20900
C798        C  0.04490037  0.59826894  0.09231103    -0.07500
C799        C  0.08361541  0.63179272  0.09691618     0.13400
C800        C  0.09408964  0.65785467  0.13220240    -0.21000
C801        C  0.06822755  0.65146515  0.16462532    -0.07500
C802        C  0.03082138  0.61680919  0.16262444     0.13300
C803        C  0.00305816  0.60677671  0.19874800    -0.24300
H804        H  0.99106739  0.56411931  0.12632808     0.14600
H805        H  0.12317601  0.68403449  0.13420136     0.14700
C806        C  0.11510198  0.64330165  0.06492936    -0.24300
H807        H  0.97607200  0.57731380  0.19330239     0.04900
H808        H  0.99506205  0.63001838  0.20179614     0.08100
H809        H  0.01659736  0.60521910  0.22923716     0.08100
H810        H  0.12074367  0.67153551  0.54899424     0.08100
H811        H  0.10813252  0.61944171  0.04097707     0.08100
H812        H  0.14220295  0.64990627  0.08165781     0.04900
C813        C  0.09347748  0.65088707  0.38462688    -0.20900
C814        C  0.06622645  0.65428419  0.35977358    -0.07500
C815        C  0.02670976  0.63211548  0.37132468     0.13400
C816        C  0.01604530  0.60800972  0.40778903    -0.21000
C817        C  0.04362233  0.60560811  0.43291153    -0.07500
C818        C  0.08283638  0.62763752  0.42137561     0.13300
C819        C  0.11419623  0.62958071  0.44938325    -0.24300
H820        H  0.12382701  0.66832813  0.37664231     0.14600
H821        H  0.48649585  0.59248326  0.41800750     0.14700
C822        C  0.99548650  0.63325675  0.34564794    -0.24300
H823        H  0.11886546  0.64941234  0.47723117     0.04900
H824        H  0.14212353  0.64285955  0.43261030     0.08100
H825        H  0.10597293  0.59919315  0.46025070     0.08100
H826        H  0.99600811  0.62461456  0.31177307     0.08100
H827        H  0.99974566  0.66383917  0.34741581     0.08100
H828        H  0.46637550  0.61126314  0.35761712     0.04900
C829        C  0.14126043  0.97632791  0.07168158    -0.20900
C830        C  0.13368518  0.00548870  0.05683767    -0.07500
C831        C  0.15027933  0.54410685  0.07807884     0.13400
C832        C  0.17251747  0.55073878  0.11517235    -0.21000
C833        C  0.18021454  0.52160826  0.13061105    -0.07500
C834        C  0.16555374  0.98386834  0.10754990     0.13300
C835        C  0.17441365  0.95203924  0.11974866    -0.24300
H836        H  0.12901102  0.94791774  0.05422822     0.14600
H837        H  0.18480341  0.57975179  0.13137204     0.14700
C838        C  0.14707862  0.57851711  0.06201577    -0.24300
H839        H  0.15919521  0.92496026  0.09840946     0.04900
H840        H  0.16499998  0.94223029  0.15276901     0.08100
H841        H  0.20594899  0.96420233  0.11744996     0.08100
H842        H  0.13320975  0.58676455  0.08716119     0.08100
H843        H  0.13003843  0.57137677  0.03175945     0.08100
H844        H  0.17639230  0.60474280  0.05615032     0.04900
C845        C  0.11521658  0.96904915  0.36878781    -0.20900
C846        C  0.12065116  0.99968536  0.39828128    -0.07500
C847        C  0.15160804  0.54096708  0.39209104     0.13400
C848        C  0.17651847  0.54792879  0.35808327    -0.21000
C849        C  0.17209913  0.51705764  0.33048619    -0.07500
C850        C  0.14094833  0.97659873  0.33497229     0.13300
C851        C  0.13367095  0.94240751  0.30529686    -0.24300
H852        H  0.09157920  0.93862010  0.37198509     0.14600
H853        H  0.20073306  0.57832512  0.35385548     0.14700
C854        C  0.16213216  0.57753051  0.41968240    -0.24300
H855        H  0.10681110  0.91387738  0.31327721     0.04900
H856        H  0.15802698  0.93703882  0.30779055     0.08100
H857        H  0.13063681  0.94982788  0.27179345     0.08100
H858        H  0.19360609  0.58933489  0.93369907     0.08100
H859        H  0.14303399  0.57177101  0.44684397     0.08100
H860        H  0.16157619  0.60061809  0.39957874     0.04900
C861        C  0.08734850  0.85116937  0.43090862    -0.20900
C862        C  0.04941794  0.84427399  0.42905080    -0.07500
C863        C  0.03098369  0.83561072  0.38780943     0.13400
C864        C  0.04609830  0.82402307  0.35398759    -0.21000
C865        C  0.08151697  0.82593873  0.35816270    -0.07500
C866        C  0.10368338  0.84248428  0.39618407     0.13300
C867        C  0.14383108  0.84939664  0.40126084    -0.24300
H868        H  0.10454647  0.86306890  0.46008593     0.10800
H869        H  0.03068754  0.81442522  0.32342892     0.14700
C870        C  0.99794457  0.84142733  0.37676621    -0.24300
H871        H  0.15637849  0.86117570  0.43374817     0.04900
H872        H  0.16333704  0.87190387  0.37786054     0.08100
H873        H  0.14303316  0.82066634  0.39600347     0.08100
H874        H  0.97283971  0.82264699  0.39624897     0.08100
H875        H  0.48987751  0.83511342  0.34339451     0.08100
H876        H  0.00723579  0.87357803  0.38111970     0.04900
C877        C  0.06342984  0.86399863  0.12539640    -0.20900
C878        C  0.04324680  0.83558226  0.09171354    -0.07500
C879        C  0.03870671  0.79673075  0.09565581     0.13400
C880        C  0.05656953  0.78914464  0.12985722    -0.21000
C881        C  0.07754307  0.81785000  0.16213767    -0.07500
C882        C  0.08006559  0.85540203  0.16059274     0.13300
C883        C  0.09808973  0.88541593  0.19724944    -0.24300
H884        H  0.06553576  0.89279198  0.12564773     0.14600
H885        H  0.05352822  0.75974873  0.13163232     0.14700
C886        C  0.51667496  0.76171417  0.06482352    -0.24300
H887        H  0.09733309  0.91314190  0.19130478     0.04900
H888        H  0.12870365  0.89428646  0.20227307     0.08100
H889        H  0.08210117  0.87177545  0.22703249     0.08100
H890        H  0.03535982  0.75328680  0.04972871     0.08100
H891        H  0.50098119  0.76714380  0.03933067     0.08100
H892        H  0.49477138  0.73532838  0.08279019     0.04900
C893        C  0.30902278  0.67613785  0.36768842    -0.20900
C894        C  0.33590355  0.67881311  0.33795536    -0.07500
C895        C  0.37492503  0.71018034  0.34275220     0.13400
C896        C  0.38622343  0.73657463  0.37824283    -0.21000
C897        C  0.36010610  0.73202850  0.41045442    -0.07500
C898        C  0.32018603  0.70208806  0.40359430     0.13300
C899        C  0.28841554  0.69639758  0.43329510    -0.24300
H900        H  0.27888429  0.65276891  0.36325544     0.14600
H901        H  0.41584988  0.76082942  0.37995785     0.14700
C902        C  0.40487354  0.71695898  0.31011375    -0.24300
H903        H  0.25932242  0.67324350  0.42062449     0.04900
H904        H  0.28815196  0.72454655  0.43688342     0.08100
H905        H  0.29132158  0.68600788  0.46513359     0.08100
H906        H  0.39524534  0.72055971  0.27790641     0.08100
H907        H  0.40946217  0.69117818  0.30953575     0.08100
H908        H  0.43332696  0.74446868  0.31761933     0.04900
C909        C  0.33302682  0.72684284  0.09289200    -0.20900
C910        C  0.36362659  0.73004704  0.06944789    -0.07500
C911        C  0.38100876  0.70815929  0.08177410     0.13400
C912        C  0.36859423  0.68511263  0.11875531    -0.21000
C913        C  0.33716349  0.68084789  0.14208501    -0.07500
C914        C  0.31901613  0.70212832  0.12864509     0.13300
C915        C  0.28421990  0.69843714  0.15036409    -0.24300
H916        H  0.31813812  0.74142059  0.08134584     0.14600
H917        H  0.38217367  0.66841385  0.12790044     0.14700
C918        C  0.41111700  0.70714410  0.05477817    -0.24300
H919        H  0.27529478  0.71853436  0.13611818     0.04900
H920        H  0.29095391  0.70670286  0.18483629     0.08100
H921        H  0.25915480  0.66721716  0.14657436     0.08100
H922        H  0.43497627  0.73807649  0.04890873     0.08100
H923        H  0.39818044  0.69198518  0.02354252     0.08100
H924        H  0.42326872  0.69044595  0.07043023     0.04900
C925        C  0.37480637  0.75807577  0.95147222     0.85800
C926        C  0.35978980  0.78691653  0.95795741    -0.54400
C927        C  0.36882664  0.80602379  0.49710884     0.08800
C928        C  0.39566881  0.79772391  0.52522474     0.19700
C929        C  0.41890734  0.78484450  0.95876384    -0.55100
C930        C  0.43019718  0.80687584  0.49639852     0.08900
C931        C  0.36253013  0.73137354  0.99077905    -0.54600
C932        C  0.37357020  0.75160201  0.52939676     0.09400
H933        H  0.34214625  0.79028781  0.93411208     0.14000
H934        H  0.40429373  0.81420627  0.55649854    -0.00300
H935        H  0.43965696  0.78118864  0.94118686     0.14300
H936        H  0.34852256  0.69853588  0.48954678     0.14100
C937        C  0.02948404  0.84696924  0.55055906     0.85800
C938        C  0.04135579  0.89138805  0.54489777    -0.54400
C939        C  0.02882739  0.89890052  0.00752441     0.08800
C940        C  0.00405244  0.86093521  0.97945682     0.19700
C941        C  0.48534050  0.82444806  0.54683755    -0.55100
C942        C  0.47163953  0.83019224  0.00945338     0.08900
C943        C  0.04322935  0.83713644  0.01027505    -0.54600
C944        C  0.03146604  0.84490896  0.97204126     0.09400
H945        H  0.06207861  0.91596699  0.56525457     0.14000
H946        H  0.49261910  0.86746046  0.95140211    -0.00300
H947        H  0.46643609  0.80396880  0.57088399     0.14300
H948        H  0.06253825  0.82561255  0.01219788     0.14100
C949        C  0.09803589  0.99015506  0.94036726     0.85800
C950        C  0.06740740  0.94573601  0.94945205    -0.54400
C951        C  0.05010351  0.93938445  0.48854617     0.08800
C952        C  0.06579555  0.97824369  0.51548374     0.19700
C953        C  0.07557794  0.01205938  0.94752903    -0.55100
C954        C  0.05939597  0.00662914  0.48699055     0.08900
C955        C  0.12642630  0.00232244  0.97850631    -0.54600
C956        C  0.10955413  0.99557492  0.51712889     0.09400
H957        H  0.06107506  0.92062057  0.92881926     0.14000
H958        H  0.05282796  0.97350328  0.54764847    -0.00300
H959        H  0.07337386  0.53225142  0.92340768     0.14300
H960        H  0.15581884  0.51575057  0.47666328     0.14100
C961        C  0.02923798  0.57412325  0.55038429     0.85800
C962        C  0.48575662  0.54427183  0.54355810    -0.54400
C963        C  0.47718965  0.52497600  0.00400509     0.08800
C964        C  0.01161668  0.53640465  0.97529077     0.19700
C965        C  0.04689982  0.54783418  0.54256094    -0.55100
C966        C  0.03952257  0.52891802  0.00226255     0.08900
C967        C  0.04001311  0.60188102  0.51169632    -0.54600
C968        C  0.03202925  0.58238397  0.97282199     0.09400
H969        H  0.46381390  0.54150845  0.56492124     0.14000
H970        H  0.50518648  0.02127798  0.94372551    -0.00300
H971        H  0.06546541  0.54533908  0.56597816     0.14300
H972        H  0.05448171  0.63385259  0.01461740     0.14100
C973        C  0.38190988  0.98655391  0.94246205     0.85800
C974        C  0.42511329  0.50703127  0.94907051    -0.54400
C975        C  0.43635671  0.00117761  0.48858320     0.08800
C976        C  0.40165751  0.97377898  0.51732722     0.19700
C977        C  0.36714838  0.94230277  0.95182925    -0.55100
C978        C  0.37669643  0.93494696  0.49064944     0.08900
C979        C  0.36884714  0.00229955  0.98042763    -0.54600
C980        C  0.37664817  0.99318654  0.51915181     0.09400
H981        H  0.44600744  0.52753472  0.92683994     0.14000
H982        H  0.41038924  0.96817057  0.54903846    -0.00300
H983        H  0.34764839  0.91794329  0.93007191     0.14300
H984        H  0.35122644  0.51604984  0.47454815     0.14100
C985        C  0.31169182  0.84479526  0.55967993     0.85800
C986        C  0.33438850  0.82315388  0.55210099    -0.54400
C987        C  0.35024226  0.82882075  0.01204834     0.08800
C988        C  0.34223868  0.85611354  0.98356262     0.19700
C989        C  0.34179621  0.88871718  0.54981178    -0.55100
C990        C  0.35726511  0.89529970  0.01012849     0.08900
C991        C  0.28194534  0.82982369  0.52218854    -0.54600
C992        C  0.29820394  0.83701348  0.98268432     0.09400
H993        H  0.33870897  0.80571063  0.57556997     0.14000
H994        H  0.35479157  0.86086888  0.95117426    -0.00300
H995        H  0.34940614  0.91346858  0.57192151     0.14300
H996        H  0.25186963  0.81729663  0.02683232     0.14100
Fe997      Fe  0.15111521  0.73027931  0.76337673     1.65800
Fe998      Fe  0.06977009  0.73622821  0.76262956     1.73200
Fe999      Fe  0.15962579  0.82258402  0.76329794     1.54400
O1000       O  0.19748270  0.82396501  0.81063524    -0.82300
O1001       O  0.06945327  0.76949431  0.71243122    -0.80600
O1002       O  0.18695839  0.76190796  0.81404026    -0.84800
O1003       O  0.19326225  0.76561874  0.72025619    -0.79700
O1004       O  0.12937781  0.82959337  0.81183825    -0.81500
O1005       O  0.06135151  0.69201978  0.71856929    -0.84200
C1006       C  0.20659633  0.80007277  0.70422430     0.96600
C1007       C  0.20385907  0.79805828  0.82735849     1.04000
O1008       O  0.12686711  0.76312842  0.76304707    -1.13200
O1009       O  0.06378667  0.69992522  0.81279989    -0.75600
O1010       O  0.11284329  0.68993883  0.80659609    -0.79100
O1011       O  0.19466769  0.82328478  0.71524204    -0.79800
C1012       C  0.08165662  0.68259320  0.82388552     0.95500
O1013       O  0.11768863  0.69518197  0.71295587    -0.77700
O1014       O  0.06963096  0.77619752  0.80664594    -0.82900
C1015       C  0.09197437  0.80482551  0.69928932     0.98100
C1016       C  0.09458674  0.80971666  0.82369313     1.04000
O1017       O  0.12543199  0.82826059  0.71602689    -0.78600
C1018       C  0.08279737  0.68109124  0.70139042     1.02300
Fe1019     Fe  0.33824899  0.59771197  0.73855201     1.65800
Fe1020     Fe  0.24981604  0.50907280  0.73410093     1.73200
Fe1021     Fe  0.25483995  0.59961540  0.73648882     1.54400
O1022       O  0.28661778  0.63533470  0.78784978    -0.82300
O1023       O  0.21213124  0.50679188  0.68695538    -0.80600
O1024       O  0.34318967  0.63877534  0.78507460    -0.84800
O1025       O  0.34384933  0.63588342  0.69010228    -0.79700
O1026       O  0.21354393  0.56261218  0.77856107    -0.81500
O1027       O  0.28245138  0.50611380  0.68491684    -0.84200
C1028       C  0.32403214  0.65083608  0.67781215     0.96600
C1029       C  0.32111344  0.64950967  0.80112005     1.04000
O1030       O  0.28099795  0.56869071  0.73674640    -1.13200
O1031       O  0.28403549  0.50355361  0.78025110    -0.75600
O1032       O  0.33969703  0.56250762  0.78636090    -0.79100
O1033       O  0.29200085  0.64097183  0.69417726    -0.79800
C1034       C  0.31734590  0.52632114  0.79725148     0.95500
O1035       O  0.34113897  0.56109946  0.69228608    -0.77700
O1036       O  0.21286138  0.50512994  0.78268149    -0.82900
C1037       C  0.20558688  0.53228812  0.67007349     0.98100
C1038       C  0.20099161  0.52828504  0.79449706     1.04000
O1039       O  0.22072540  0.56790306  0.68483085    -0.78600
C1040       C  0.31747459  0.52786719  0.67379838     1.02300
C1041       C  0.28826372  0.81142502  0.63300092    -0.20900
C1042       C  0.29056481  0.83910928  0.60248240    -0.07500
C1043       C  0.26833772  0.85752517  0.61008010     0.13400
C1044       C  0.24104617  0.84344644  0.64270151    -0.21000
C1045       C  0.23683232  0.81371455  0.67085642    -0.07500
C1046       C  0.26253876  0.79931486  0.66740535     0.13300
C1047       C  0.26407145  0.77211714  0.70045680    -0.24300
H1048       H  0.30580634  0.79815910  0.63026683     0.14600
H1049       H  0.22302463  0.85632808  0.64653605     0.14700
C1050       C  0.27369757  0.89331314  0.58569171    -0.24300
H1051       H  0.28891802  0.76796673  0.69558410     0.04900
H1052       H  0.23724390  0.74198513  0.69870378     0.08100
H1053       H  0.26777058  0.78569586  0.73293414     0.08100
H1054       H  0.27349778  0.88887659  0.05142378     0.08100
H1055       H  0.30174064  0.92013654  0.59531170     0.08100
H1056       H  0.25112065  0.90053231  0.59302752     0.04900
C1057       C  0.27136816  0.79837770  0.91450753    -0.20900
C1058       C  0.27485595  0.82839719  0.94243618    -0.07500
C1059       C  0.25692312  0.85011987  0.93104605     0.13400
C1060       C  0.23599259  0.84117899  0.89217624    -0.21000
C1061       C  0.23086094  0.80968757  0.86500990    -0.07500
C1062       C  0.24968795  0.78848886  0.87611358     0.13300
C1063       C  0.24786758  0.75576882  0.84783124    -0.24300
H1064       H  0.28460172  0.78151882  0.92354482     0.14600
H1065       H  0.22198583  0.85768983  0.88404076     0.14700
C1066       C  0.25867395  0.88191249  0.96025744    -0.24300
H1067       H  0.26720373  0.74548367  0.85997701     0.04900
H1068       H  0.25716463  0.76720933  0.81504632     0.08100
H1069       H  0.21810504  0.72904824  0.84675702     0.08100
H1070       H  0.28903778  0.90339353  0.97008694     0.08100
H1071       H  0.23887408  0.86506125  0.48961743     0.08100
H1072       H  0.24680296  0.89890056  0.94463284     0.04900
C1073       C  0.32597563  0.98023659  0.89970267    -0.20900
C1074       C  0.36408568  0.48861358  0.89854204    -0.07500
C1075       C  0.38486189  0.50454070  0.86031059     0.13400
C1076       C  0.36913245  0.51735753  0.82825063    -0.21000
C1077       C  0.33140430  0.51019628  0.83086055    -0.07500
C1078       C  0.30820930  0.48788885  0.86526665     0.13300
C1079       C  0.26838702  0.98085572  0.87031261    -0.24300
H1080       H  0.30847843  0.96526625  0.92707091     0.14600
H1081       H  0.38585455  0.53151032  0.79998147     0.14700
C1082       C  0.42049338  0.50351270  0.84935742    -0.24300
H1083       H  0.25563736  0.96635237  0.90118067     0.04900
H1084       H  0.25003248  0.95962018  0.84424775     0.08100
H1085       H  0.26545236  0.50514223  0.86829352     0.08100
H1086       H  0.42500256  0.48368501  0.87076928     0.08100
H1087       H  0.44624376  0.53446127  0.84993345     0.08100
H1088       H  0.41697600  0.49040340  0.81663531     0.04900
C1089       C  0.37931909  0.50795894  0.59812387    -0.20900
C1090       C  0.35761773  0.49796877  0.55958416    -0.07500
C1091       C  0.32027919  0.49352642  0.56092393     0.13400
C1092       C  0.30823381  0.50332645  0.59868732    -0.21000
C1093       C  0.33095993  0.51524903  0.63617743    -0.07500
C1094       C  0.36636992  0.51624282  0.63630931     0.13300
C1095       C  0.39009881  0.52488602  0.67690704    -0.24300
H1096       H  0.40689882  0.50991066  0.59867043     0.14600
H1097       H  0.28046992  0.50133375  0.59891063     0.14700
C1098       C  0.29327500  0.97769850  0.52407072    -0.24300
H1099       H  0.41517350  0.52109022  0.67194826     0.04900
H1100       H  0.37202852  0.50366264  0.70206965     0.08100
H1101       H  0.40128958  0.55625200  0.68821613     0.08100
H1102       H  0.29901591  0.95952573  0.50157954     0.08100
H1103       H  0.28948883  0.50109974  0.00754706     0.08100
H1104       H  0.26190531  0.45361071  0.53750639     0.04900
C1105       C  0.01858147  0.59164695  0.62684554    -0.20900
C1106       C  0.04376397  0.59915512  0.59242078    -0.07500
C1107       C  0.08260757  0.63247357  0.59703479     0.13400
C1108       C  0.09328556  0.65854310  0.63230733    -0.21000
C1109       C  0.06772915  0.65199433  0.66508671    -0.07500
C1110       C  0.03016116  0.61752993  0.66309377     0.13300
C1111       C  0.00275425  0.60722942  0.69965225    -0.24300
H1112       H  0.98980196  0.56540448  0.62627755     0.14600
H1113       H  0.12243208  0.68465547  0.63421445     0.14700
C1114       C  0.11420734  0.64349885  0.56532668    -0.24300
H1115       H  0.97564607  0.57788299  0.69414888     0.04900
H1116       H  0.99492218  0.63053268  0.70351036     0.08100
H1117       H  0.01652297  0.60523489  0.72975018     0.08100
H1118       H  0.12105085  0.67115714  0.04862989     0.08100
H1119       H  0.10709154  0.61956483  0.54142087     0.08100
H1120       H  0.14102150  0.64957596  0.58233899     0.04900
C1121       C  0.09409998  0.65045603  0.88450583    -0.20900
C1122       C  0.06691495  0.65392152  0.85961493    -0.07500
C1123       C  0.02732284  0.63134282  0.87062866     0.13400
C1124       C  0.01657835  0.60753932  0.90731475    -0.21000
C1125       C  0.04410729  0.60527486  0.93271898    -0.07500
C1126       C  0.08332651  0.62707473  0.92116425     0.13300
C1127       C  0.11462080  0.62884795  0.94915792    -0.24300
H1128       H  0.12447186  0.66796026  0.87665185     0.14600
H1129       H  0.48774900  0.59203090  0.91772346     0.14700
C1130       C  0.99611120  0.63155559  0.84391766    -0.24300
H1131       H  0.11966851  0.64906410  0.97676477     0.04900
H1132       H  0.14240542  0.64160568  0.93218530     0.08100
H1133       H  0.10620312  0.59850361  0.96037135     0.08100
H1134       H  0.99740457  0.62282865  0.81028212     0.08100
H1135       H  0.99965213  0.66183223  0.84505481     0.08100
H1136       H  0.46713303  0.60932826  0.85651761     0.04900
C1137       C  0.14152026  0.97472282  0.57032288    -0.20900
C1138       C  0.13277630  0.00345198  0.55674308    -0.07500
C1139       C  0.14866338  0.54353320  0.58016504     0.13400
C1140       C  0.17098000  0.54998990  0.61710743    -0.21000
C1141       C  0.17952665  0.52120477  0.63162692    -0.07500
C1142       C  0.16568116  0.98195971  0.60635256     0.13300
C1143       C  0.17628912  0.95108392  0.61690854    -0.24300
H1144       H  0.13033791  0.94701007  0.55177796     0.14600
H1145       H  0.18279072  0.57870507  0.63382166     0.14700
C1146       C  0.14509803  0.57790374  0.56469305    -0.24300
H1147       H  0.16220837  0.92472732  0.59448662     0.04900
H1148       H  0.16692130  0.93982375  0.64956245     0.08100
H1149       H  0.20805319  0.96472836  0.61474211     0.08100
H1150       H  0.13085971  0.58563920  0.58989942     0.08100
H1151       H  0.12831263  0.57102807  0.53428198     0.08100
H1152       H  0.17433197  0.60441943  0.55924246     0.04900
C1153       C  0.11625004  0.96960319  0.86934293    -0.20900
C1154       C  0.12135194  0.00027383  0.89856251    -0.07500
C1155       C  0.15323757  0.54116241  0.89148109     0.13400
C1156       C  0.17818906  0.54787784  0.85770193    -0.21000
C1157       C  0.17271889  0.51702360  0.82952135    -0.07500
C1158       C  0.14220473  0.97706053  0.83581819     0.13300
C1159       C  0.13550827  0.94259660  0.80692818    -0.24300
H1160       H  0.09266900  0.93908597  0.87262247     0.14600
H1161       H  0.20306255  0.57796562  0.85389299     0.14700
C1162       C  0.16427630  0.57763189  0.91951355    -0.24300
H1163       H  0.10878402  0.91400410  0.81509046     0.04900
H1164       H  0.16007841  0.93763444  0.81019672     0.08100
H1165       H  0.13256674  0.94939620  0.77314323     0.08100
H1166       H  0.19186129  0.59029524  0.43315407     0.08100
H1167       H  0.14465992  0.57210788  0.94610127     0.08100
H1168       H  0.16496808  0.60147070  0.89957369     0.04900
C1169       C  0.08679070  0.84805351  0.93288821    -0.20900
C1170       C  0.04968566  0.84337304  0.93021988    -0.07500
C1171       C  0.03229734  0.83648603  0.88847467     0.13400
C1172       C  0.04768934  0.82541157  0.85451123    -0.21000
C1173       C  0.08219415  0.82557685  0.85927336    -0.07500
C1174       C  0.10318570  0.83937818  0.89825905     0.13300
C1175       C  0.14215220  0.84347604  0.90424125    -0.24300
H1176       H  0.10352576  0.85853684  0.96246749     0.10800
H1177       H  0.03316002  0.81741653  0.82340905     0.14700
C1178       C  0.99989438  0.84326068  0.87707542    -0.24300
H1179       H  0.15379362  0.85308967  0.93743124     0.04900
H1180       H  0.16320423  0.86653933  0.88231647     0.08100
H1181       H  0.13979877  0.81416483  0.89744339     0.08100
H1182       H  0.97407478  0.82390839  0.89538819     0.08100
H1183       H  0.49069659  0.83569336  0.84335182     0.08100
H1184       H  0.00944419  0.87536814  0.88240539     0.04900
C1185       C  0.06517070  0.86442410  0.62424137    -0.20900
C1186       C  0.04473549  0.83590852  0.59071523    -0.07500
C1187       C  0.03984527  0.79691514  0.59493760     0.13400
C1188       C  0.05705490  0.78905251  0.62968247    -0.21000
C1189       C  0.07788882  0.81771936  0.66208962    -0.07500
C1190       C  0.08123428  0.85564167  0.65985141     0.13300
C1191       C  0.09952111  0.88596557  0.69621724    -0.24300
H1192       H  0.06785710  0.89347522  0.62413261     0.14600
H1193       H  0.05360672  0.75949138  0.63177315     0.14700
C1194       C  0.51784819  0.76304639  0.56463694    -0.24300
H1195       H  0.09924628  0.91388580  0.68980451     0.04900
H1196       H  0.13001705  0.89447742  0.70141965     0.08100
H1197       H  0.08338715  0.87279850  0.72604408     0.08100
H1198       H  0.03660914  0.75344553  0.54911282     0.08100
H1199       H  0.50233219  0.76841050  0.53886534     0.08100
H1200       H  0.49582263  0.73653608  0.58234986     0.04900
C1201       C  0.30870022  0.67673164  0.86707007    -0.20900
C1202       C  0.33548947  0.67929157  0.83723946    -0.07500
C1203       C  0.37448012  0.71089719  0.84178315     0.13400
C1204       C  0.38586473  0.73725704  0.87734733    -0.21000
C1205       C  0.35987796  0.73260072  0.90975936    -0.07500
C1206       C  0.31993855  0.70272634  0.90293786     0.13300
C1207       C  0.28825207  0.69703560  0.93276881    -0.24300
H1208       H  0.27853585  0.65329863  0.86286182     0.14600
H1209       H  0.41552222  0.76160940  0.87903932     0.14700
C1210       C  0.40429288  0.71791680  0.80886538    -0.24300
H1211       H  0.25908768  0.67433555  0.91985367     0.04900
H1212       H  0.28838882  0.72533746  0.93698037     0.08100
H1213       H  0.29089109  0.68603970  0.96434575     0.08100
H1214       H  0.39432596  0.72126419  0.77674611     0.08100
H1215       H  0.40925967  0.69239157  0.80823978     0.08100
H1216       H  0.43263617  0.74565717  0.81612500     0.04900
C1217       C  0.33431082  0.72671198  0.59398120    -0.20900
C1218       C  0.36462002  0.72988829  0.57001743    -0.07500
C1219       C  0.38186545  0.70766503  0.58164239     0.13400
C1220       C  0.36939886  0.68407815  0.61826914    -0.21000
C1221       C  0.33828204  0.67992304  0.64214681    -0.07500
C1222       C  0.32041880  0.70173817  0.62953458     0.13300
C1223       C  0.28603702  0.69843675  0.65191945    -0.24300
H1224       H  0.31957076  0.74164384  0.58303593     0.14600
H1225       H  0.38284663  0.66711497  0.62685015     0.14700
C1226       C  0.41213553  0.70717146  0.55444645    -0.24300
H1227       H  0.27706965  0.71857432  0.63788862     0.04900
H1228       H  0.29330415  0.70697612  0.68627837     0.08100
H1229       H  0.26077978  0.66728430  0.64851854     0.08100
H1230       H  0.43612538  0.73824431  0.54945256     0.08100
H1231       H  0.39949956  0.69279467  0.52283652     0.08100
H1232       H  0.42407441  0.69002740  0.56951224     0.04900
C1233       C  0.87624620  0.25768377  0.44987644     0.85800
C1234       C  0.86049167  0.28575222  0.45719246    -0.54400
C1235       C  0.86857704  0.30615233  0.99572463     0.08800
C1236       C  0.89527540  0.29743912  0.02343735     0.19700
C1237       C  0.92025624  0.28508931  0.45783570    -0.55100
C1238       C  0.93011251  0.30745164  0.99473888     0.08900
C1239       C  0.86391326  0.22996014  0.48832178    -0.54600
C1240       C  0.87321444  0.25125377  0.02659126     0.09400
H1241       H  0.84333401  0.28972171  0.43320317     0.14000
H1242       H  0.90357262  0.31328170  0.05507718    -0.00300
H1243       H  0.94162554  0.28303013  0.43976702     0.14300
H1244       H  0.84895796  0.19903041  0.98556350     0.14100
C1245       C  0.52852186  0.34647274  0.05150801     0.85800
C1246       C  0.54088166  0.39104139  0.04585835    -0.54400
C1247       C  0.52885061  0.39927219  0.50821460     0.08800
C1248       C  0.50434693  0.36140227  0.47995722     0.19700
C1249       C  0.98451063  0.32503797  0.04632651    -0.55100
C1250       C  0.97212501  0.33047327  0.50978107     0.08900
C1251       C  0.54356995  0.33760777  0.51071675    -0.54600
C1252       C  0.53193719  0.34555572  0.47247005     0.09400
H1253       H  0.56124814  0.41536925  0.06676964     0.14000
H1254       H  0.99339158  0.36852334  0.45230406    -0.00300
H1255       H  0.96514673  0.30450488  0.07007820     0.14300
H1256       H  0.56278785  0.32596794  0.51266214     0.14100
C1257       C  0.59668678  0.49076914  0.44078969     0.85800
C1258       C  0.56633352  0.44635709  0.45006605    -0.54400
C1259       C  0.55088682  0.43963142  0.98937832     0.08800
C1260       C  0.56587873  0.47865156  0.01595114     0.19700
C1261       C  0.57410767  0.51250256  0.44814229    -0.55100
C1262       C  0.55889183  0.50648228  0.98713621     0.08900
C1263       C  0.62523617  0.50307565  0.47883046    -0.54600
C1264       C  0.60980129  0.49705407  0.01762602     0.09400
H1265       H  0.56054211  0.42128482  0.42967660     0.14000
H1266       H  0.55290622  0.47389189  0.04811106    -0.00300
H1267       H  0.57450306  0.03192732  0.42376553     0.14300
H1268       H  0.65643312  0.01244698  0.97528051     0.14100
C1269       C  0.53172209  0.07341494  0.05065347     0.85800
C1270       C  0.98721233  0.04304819  0.04387634    -0.54400
C1271       C  0.97728969  0.02427014  0.50411456     0.08800
C1272       C  0.51266055  0.03653273  0.47498328     0.19700
C1273       C  0.54892477  0.04677136  0.04234873    -0.55100
C1274       C  0.54037197  0.02902170  0.50233964     0.08900
C1275       C  0.54271179  0.10146308  0.01220465    -0.54600
C1276       C  0.53306926  0.08252167  0.47248682     0.09400
H1277       H  0.96533301  0.04009451  0.06551880     0.14000
H1278       H  0.00344534  0.52127393  0.44387834    -0.00300
H1279       H  0.56714439  0.04365266  0.06569000     0.14300
H1280       H  0.55561188  0.13403423  0.51430792     0.14100
C1281       C  0.87957104  0.48303695  0.44159441     0.85800
C1282       C  0.92551722  0.00677871  0.44920421    -0.54400
C1283       C  0.93545681  0.50154355  0.98922582     0.08800
C1284       C  0.90066534  0.47407533  0.01779826     0.19700
C1285       C  0.86594201  0.43904876  0.45116169    -0.55100
C1286       C  0.87612799  0.43516018  0.99104902     0.08900
C1287       C  0.86550771  0.49795948  0.47930119    -0.54600
C1288       C  0.87537164  0.49323457  0.01926260     0.09400
H1289       H  0.94664953  0.02754507  0.42744406     0.14000
H1290       H  0.90934827  0.46864722  0.04962671    -0.00300
H1291       H  0.84664509  0.41439000  0.42959734     0.14300
H1292       H  0.85402727  0.01776793  0.97495508     0.14100
C1293       C  0.81221445  0.34483651  0.06003254     0.85800
C1294       C  0.83470456  0.32306396  0.05176058    -0.54400
C1295       C  0.84939245  0.32596459  0.51206421     0.08800
C1296       C  0.84122585  0.35325937  0.48367667     0.19700
C1297       C  0.84235464  0.38871075  0.05022846    -0.55100
C1298       C  0.85683087  0.39267488  0.50998854     0.08900
C1299       C  0.78210723  0.33002854  0.02293817    -0.54600
C1300       C  0.79719855  0.33452660  0.48340596     0.09400
H1301       H  0.83918814  0.30550846  0.07498446     0.14000
H1302       H  0.85340882  0.35777238  0.45111884    -0.00300
H1303       H  0.85030945  0.41335811  0.07259580     0.14300
H1304       H  0.75149789  0.31534111  0.52836327     0.14100
Fe1305     Fe  0.65151600  0.23043968  0.26332589     1.65800
Fe1306     Fe  0.57017647  0.23617827  0.26236980     1.73200
Fe1307     Fe  0.65983980  0.32262798  0.26343242     1.54400
O1308       O  0.69763568  0.32357724  0.31073773    -0.82300
O1309       O  0.56986346  0.26945311  0.21237223    -0.80600
O1310       O  0.68593144  0.26103769  0.31512971    -0.84800
O1311       O  0.69474880  0.26665570  0.22169748    -0.79700
O1312       O  0.62956410  0.32938983  0.31218202    -0.81500
O1313       O  0.56249542  0.19220687  0.21802108    -0.84200
C1314       C  0.70759595  0.30073871  0.20498085     0.96600
C1315       C  0.70322196  0.29732182  0.32805524     1.04000
O1316       O  0.62720241  0.26321590  0.26298006    -1.13200
O1317       O  0.56402293  0.19981882  0.31251157    -0.75600
O1318       O  0.61231177  0.18884813  0.30503698    -0.79100
O1319       O  0.69485552  0.32346345  0.21511273    -0.79800
C1320       C  0.58143666  0.18183888  0.32283756     0.95500
O1321       O  0.61937678  0.19667189  0.21176099    -0.77700
O1322       O  0.56973551  0.27613387  0.30654582    -0.82900
C1323       C  0.59202680  0.30497866  0.19962087     0.98100
C1324       C  0.59469915  0.30958211  0.32385770     1.04000
O1325       O  0.62545674  0.32860447  0.21640802    -0.78600
C1326       C  0.58437429  0.18201020  0.20036795     1.02300
Fe1327     Fe  0.83856363  0.09821396  0.23695084     1.65800
Fe1328     Fe  0.75043660  0.00907407  0.23370312     1.73200
Fe1329     Fe  0.75464060  0.09937333  0.23515944     1.54400
O1330       O  0.78846567  0.13778003  0.28414944    -0.82300
O1331       O  0.71443931  0.00633965  0.18470621    -0.80600
O1332       O  0.84342305  0.13763095  0.28493925    -0.84800
O1333       O  0.84410198  0.13804577  0.19011340    -0.79700
O1334       O  0.71535279  0.06392208  0.27991551    -0.81500
O1335       O  0.78422833  0.00545863  0.18631965    -0.84200
C1336       C  0.82287587  0.15060323  0.17556509     0.96600
C1337       C  0.82223791  0.15027569  0.29899055     1.04000
O1338       O  0.78125340  0.06882616  0.23560833    -1.13200
O1339       O  0.78336159  0.00436361  0.28182472    -0.75600
O1340       O  0.84055412  0.06175981  0.28327817    -0.79100
O1341       O  0.78970348  0.13865406  0.19001232    -0.79800
C1342       C  0.81752646  0.02660067  0.29678852     0.95500
O1343       O  0.84117876  0.06312183  0.18902336    -0.77700
O1344       O  0.71188880  0.00494168  0.28043890    -0.82900
C1345       C  0.70576806  0.03070958  0.16926127     0.98100
C1346       C  0.70140150  0.02872450  0.29417977     1.04000
O1347       O  0.71846947  0.06540542  0.18565044    -0.78600
C1348       C  0.81828429  0.02850338  0.17294094     1.02300
C1349       C  0.78837765  0.31075615  0.13281009    -0.20900
C1350       C  0.79148495  0.33930174  0.10303141    -0.07500
C1351       C  0.77008006  0.35853484  0.11130141     0.13400
C1352       C  0.74318600  0.34493764  0.14431953    -0.21000
C1353       C  0.73805029  0.31435277  0.17174176    -0.07500
C1354       C  0.76265596  0.29863537  0.16721950     0.13300
C1355       C  0.76276851  0.26961024  0.19881271    -0.24300
H1356       H  0.80500221  0.29649889  0.12916433     0.14600
H1357       H  0.72596423  0.35865882  0.14879399     0.14700
C1358       C  0.77554195  0.39439020  0.08687297    -0.24300
H1359       H  0.78699455  0.26458438  0.19333703     0.04900
H1360       H  0.73535735  0.24004421  0.19594768     0.08100
H1361       H  0.76663880  0.28209879  0.23185135     0.08100
H1362       H  0.77447812  0.38803599  0.55260745     0.08100
H1363       H  0.80368729  0.42117785  0.09629661     0.08100
H1364       H  0.75315216  0.40182278  0.09442388     0.04900
C1365       C  0.77214824  0.29846966  0.41353446    -0.20900
C1366       C  0.77345924  0.32612089  0.44341461    -0.07500
C1367       C  0.75354078  0.34625602  0.43379144     0.13400
C1368       C  0.73270687  0.33788502  0.39491220    -0.21000
C1369       C  0.72983243  0.30863372  0.36588530    -0.07500
C1370       C  0.75061870  0.28914368  0.37511612     0.13300
C1371       C  0.75123133  0.25913877  0.34454367    -0.24300
H1372       H  0.78725537  0.28311832  0.42088375     0.14600
H1373       H  0.71736496  0.35323418  0.38794257     0.14700
C1374       C  0.75402728  0.37655212  0.46429724    -0.24300
H1375       H  0.77186920  0.25009859  0.35543308     0.04900
H1376       H  0.76032449  0.27261272  0.31248530     0.08100
H1377       H  0.72226604  0.23130598  0.34216407     0.08100
H1378       H  0.78433144  0.39878419  0.47380756     0.08100
H1379       H  0.73972246  0.36574628  0.99005940     0.08100
H1380       H  0.74097297  0.39288042  0.44978105     0.04900
C1381       C  0.82316276  0.47486110  0.39800445    -0.20900
C1382       C  0.86490399  0.98971567  0.39866701    -0.07500
C1383       C  0.88616284  0.00718724  0.36104712     0.13400
C1384       C  0.87023717  0.01995408  0.32920310    -0.21000
C1385       C  0.83186628  0.01101832  0.33091284    -0.07500
C1386       C  0.80838100  0.98708711  0.36452612     0.13300
C1387       C  0.76520177  0.47480018  0.36844508    -0.24300
H1388       H  0.80533493  0.45836078  0.42468867     0.14600
H1389       H  0.88733500  0.03519901  0.30149981     0.14700
C1390       C  0.92237802  0.00735833  0.34998034    -0.24300
H1391       H  0.75182888  0.45823324  0.39821981     0.04900
H1392       H  0.74800703  0.45492379  0.34098077     0.08100
H1393       H  0.76262846  0.00011806  0.36653893     0.08100
H1394       H  0.92633870  0.98619898  0.36976511     0.08100
H1395       H  0.94792173  0.03833854  0.35279145     0.08100
H1396       H  0.92009759  0.99649257  0.31640060     0.04900
C1397       C  0.87997052  0.00767523  0.09862198    -0.20900
C1398       C  0.85901558  0.99864886  0.05966182    -0.07500
C1399       C  0.82196641  0.99501756  0.06022577     0.13400
C1400       C  0.80958865  0.00474400  0.09774821    -0.21000
C1401       C  0.83159538  0.01555865  0.13565682    -0.07500
C1402       C  0.86650655  0.01562737  0.13657393     0.13300
C1403       C  0.88908663  0.02303271  0.17782872    -0.24300
H1404       H  0.90734796  0.00913837  0.09966960     0.14600
H1405       H  0.78218654  0.00355690  0.09749261     0.14700
C1406       C  0.79197220  0.47818546  0.02422071    -0.24300
H1407       H  0.91415195  0.01912488  0.17341984     0.04900
H1408       H  0.87017119  0.00122005  0.20212662     0.08100
H1409       H  0.90013379  0.05413013  0.18998918     0.08100
H1410       H  0.79780894  0.46033186  0.00134569     0.08100
H1411       H  0.78970134  0.00066233  0.50960370     0.08100
H1412       H  0.76352651  0.95750877  0.03562522     0.04900
C1413       C  0.52071985  0.09172238  0.12651482    -0.20900
C1414       C  0.54628083  0.09835395  0.09275458    -0.07500
C1415       C  0.58521904  0.13140560  0.09759748     0.13400
C1416       C  0.59569596  0.15796519  0.13244821    -0.21000
C1417       C  0.56959062  0.15256986  0.16425524    -0.07500
C1418       C  0.53179968  0.11849261  0.16189638     0.13300
C1419       C  0.50336486  0.10963619  0.19701792    -0.24300
H1420       H  0.49185022  0.06571226  0.12596490     0.14600
H1421       H  0.62502799  0.18372179  0.13458418     0.14700
C1422       C  0.61704745  0.14188235  0.06634828    -0.24300
H1423       H  0.47608456  0.08048129  0.19140646     0.04900
H1424       H  0.49600235  0.13343345  0.19867982     0.08100
H1425       H  0.51595660  0.10809820  0.22821587     0.08100
H1426       H  0.62356686  0.17039801  0.54990785     0.08100
H1427       H  0.60961117  0.11821242  0.04198305     0.08100
H1428       H  0.64336849  0.14704609  0.08377576     0.04900
C1429       C  0.59422047  0.14975049  0.38319068    -0.20900
C1430       C  0.56685156  0.15315769  0.35857787    -0.07500
C1431       C  0.52741481  0.13101043  0.37028699     0.13400
C1432       C  0.51703058  0.10755619  0.40724268    -0.21000
C1433       C  0.54477038  0.10532839  0.43230806    -0.07500
C1434       C  0.58384690  0.12697601  0.42028571     0.13300
C1435       C  0.61530659  0.12886369  0.44809527    -0.24300
H1436       H  0.62449318  0.16699299  0.37483983     0.14600
H1437       H  0.98688917  0.09235349  0.41892729     0.14700
C1438       C  0.49601981  0.13131454  0.34403015    -0.24300
H1439       H  0.61928241  0.14760531  0.47673883     0.04900
H1440       H  0.64345174  0.14318543  0.43164980     0.08100
H1441       H  0.60756010  0.09832100  0.45780161     0.08100
H1442       H  0.49664080  0.12200575  0.31045278     0.08100
H1443       H  0.49994510  0.16175995  0.34481028     0.08100
H1444       H  0.96578996  0.11082884  0.35891448     0.04900
C1445       C  0.64030677  0.47638070  0.07253197    -0.20900
C1446       C  0.63310751  0.50567849  0.05724925    -0.07500
C1447       C  0.64972278  0.04132139  0.07818642     0.13400
C1448       C  0.67208131  0.04819641  0.11509989    -0.21000
C1449       C  0.68030746  0.01944360  0.13036101    -0.07500
C1450       C  0.66427823  0.48384493  0.10870839     0.13300
C1451       C  0.67236284  0.45161359  0.12163697    -0.24300
H1452       H  0.62804380  0.44792455  0.05519884     0.14600
H1453       H  0.68403026  0.07717312  0.13131801     0.14700
C1454       C  0.64591782  0.07541615  0.06245168    -0.24300
H1455       H  0.65699612  0.42443471  0.10045329     0.04900
H1456       H  0.66250364  0.44208023  0.15462769     0.08100
H1457       H  0.70382743  0.46324144  0.11977424     0.08100
H1458       H  0.63170367  0.08302918  0.08776522     0.08100
H1459       H  0.62900032  0.06833812  0.03213020     0.08100
H1460       H  0.67505141  0.10202237  0.05683737     0.04900
C1461       C  0.61384186  0.47005084  0.36894716    -0.20900
C1462       C  0.61965982  0.50072666  0.39862874    -0.07500
C1463       C  0.65272824  0.04016523  0.39148017     0.13400
C1464       C  0.67714854  0.04754730  0.35694697    -0.21000
C1465       C  0.67292731  0.01682748  0.32934647    -0.07500
C1466       C  0.63950674  0.47732049  0.33508380     0.13300
C1467       C  0.63176413  0.44309073  0.30522335    -0.24300
H1468       H  0.58979485  0.43975199  0.37194431     0.14600
H1469       H  0.70101565  0.07809127  0.35251339     0.14700
C1470       C  0.66368629  0.07647935  0.41975121    -0.24300
H1471       H  0.60467261  0.41474672  0.31311177     0.04900
H1472       H  0.65582739  0.43726082  0.30758742     0.08100
H1473       H  0.62889215  0.45076812  0.27178104     0.08100
H1474       H  0.69220399  0.09005610  0.93001614     0.08100
H1475       H  0.64536406  0.07054891  0.44770937     0.08100
H1476       H  0.66256361  0.09965673  0.40040504     0.04900
C1477       C  0.58705647  0.34812980  0.43323963    -0.20900
C1478       C  0.55017858  0.34399546  0.43054917    -0.07500
C1479       C  0.53301155  0.33749162  0.38868719     0.13400
C1480       C  0.54822354  0.32614247  0.35469309    -0.21000
C1481       C  0.58233935  0.32553132  0.35954787    -0.07500
C1482       C  0.60322101  0.33905397  0.39864865     0.13300
C1483       C  0.64183714  0.34243190  0.40480637    -0.24300
H1484       H  0.60376939  0.35841484  0.46284267     0.10800
H1485       H  0.53383916  0.31849648  0.32351194     0.14700
C1486       C  0.50095108  0.34479658  0.37723299    -0.24300
H1487       H  0.65342627  0.35184947  0.43804374     0.04900
H1488       H  0.66314246  0.36537104  0.38297697     0.08100
H1489       H  0.63899359  0.31289267  0.39798546     0.08100
H1490       H  0.47493331  0.32539971  0.39522388     0.08100
H1491       H  0.99363985  0.33999824  0.34378381     0.08100
H1492       H  0.51067017  0.37690076  0.38290545     0.04900
C1493       C  0.56190687  0.36303720  0.12641603    -0.20900
C1494       C  0.54300009  0.33507387  0.09206401    -0.07500
C1495       C  0.53937229  0.29658594  0.09567473     0.13400
C1496       C  0.55739427  0.28925329  0.12996574    -0.21000
C1497       C  0.57737364  0.31768989  0.16281362    -0.07500
C1498       C  0.57852234  0.35458254  0.16177681     0.13300
C1499       C  0.59508118  0.38397681  0.19908803    -0.24300
H1500       H  0.56293461  0.39131515  0.12698825     0.14600
H1501       H  0.55518306  0.26021903  0.13141685     0.14700
C1502       C  0.01433806  0.26196017  0.06641389    -0.24300
H1503       H  0.59324980  0.41114221  0.19354543     0.04900
H1504       H  0.62591628  0.39391968  0.20462187     0.08100
H1505       H  0.57880700  0.36933531  0.22843136     0.08100
H1506       H  0.53739951  0.25434770  0.04900304     0.08100
H1507       H  0.99975873  0.26780160  0.04002275     0.08100
H1508       H  0.99164366  0.23631264  0.08455243     0.04900
C1509       C  0.81000901  0.17828451  0.36412331    -0.20900
C1510       C  0.83679165  0.18017250  0.33484007    -0.07500
C1511       C  0.87609127  0.21083697  0.33999047     0.13400
C1512       C  0.88775803  0.23685678  0.37588597    -0.21000
C1513       C  0.86156958  0.23290648  0.40773085    -0.07500
C1514       C  0.82142222  0.20389970  0.40024982     0.13300
C1515       C  0.78964898  0.19848152  0.42979674    -0.24300
H1516       H  0.77967588  0.15551568  0.35934431     0.14600
H1517       H  0.91782538  0.26022862  0.37836434     0.14700
C1518       C  0.90585385  0.21724352  0.30725409    -0.24300
H1519       H  0.76051198  0.17544716  0.41711929     0.04900
H1520       H  0.78946610  0.22664553  0.43321778     0.08100
H1521       H  0.79243569  0.18815926  0.46171880     0.08100
H1522       H  0.89641578  0.22135493  0.27516213     0.08100
H1523       H  0.90990701  0.19111867  0.30629314     0.08100
H1524       H  0.93453633  0.24439084  0.31491834     0.04900
C1525       C  0.83253344  0.22525191  0.09026139    -0.20900
C1526       C  0.86328678  0.22879002  0.06684841    -0.07500
C1527       C  0.88065146  0.20684515  0.07902326     0.13400
C1528       C  0.86824767  0.18356889  0.11590231    -0.21000
C1529       C  0.83688174  0.17923050  0.13939902    -0.07500
C1530       C  0.81859062  0.20040963  0.12597656     0.13300
C1531       C  0.78386568  0.19669585  0.14788596    -0.24300
H1532       H  0.81770592  0.23998535  0.07891133     0.14600
H1533       H  0.88193096  0.16695139  0.12499531     0.14700
C1534       C  0.91109814  0.20648977  0.05214537    -0.24300
H1535       H  0.77480081  0.21668549  0.13365871     0.04900
H1536       H  0.79077509  0.20508087  0.18231464     0.08100
H1537       H  0.75882629  0.16544255  0.14427788     0.08100
H1538       H  0.93471461  0.23769932  0.04686495     0.08100
H1539       H  0.89852644  0.19174181  0.02065245     0.08100
H1540       H  0.92329898  0.18975040  0.06757894     0.04900
C1541       C  0.87529388  0.25890861  0.94932832     0.85800
C1542       C  0.85955811  0.28705485  0.95655229    -0.54400
C1543       C  0.86884347  0.30428074  0.49657026     0.08800
C1544       C  0.89550221  0.29549831  0.52434894     0.19700
C1545       C  0.91936150  0.28627059  0.95683137    -0.55100
C1546       C  0.93062080  0.30596858  0.49590904     0.08900
C1547       C  0.86327012  0.23158834  0.98815033    -0.54600
C1548       C  0.87371942  0.24928790  0.52692915     0.09400
H1549       H  0.84185331  0.29051235  0.93291163     0.14000
H1550       H  0.90347449  0.31101766  0.55616145    -0.00300
H1551       H  0.94036035  0.28369027  0.93873746     0.14300
H1552       H  0.84936695  0.19739554  0.48533400     0.14100
C1553       C  0.52870619  0.34703765  0.55180757     0.85800
C1554       C  0.54089561  0.39162090  0.54620830    -0.54400
C1555       C  0.52902647  0.39878221  0.00781927     0.08800
C1556       C  0.50438170  0.36091167  0.97957253     0.19700
C1557       C  0.98519164  0.32402336  0.54743154    -0.55100
C1558       C  0.97169876  0.33144307  0.00843343     0.08900
C1559       C  0.54339799  0.33695828  0.01047068    -0.54600
C1560       C  0.53177843  0.34485455  0.97219305     0.09400
H1561       H  0.56118001  0.41605753  0.56705356     0.14000
H1562       H  0.99362559  0.36861398  0.95029234    -0.00300
H1563       H  0.96603959  0.30282192  0.57085403     0.14300
H1564       H  0.56266110  0.32540326  0.01244825     0.14100
C1565       C  0.59759546  0.49009150  0.94055336     0.85800
C1566       C  0.56722134  0.44568828  0.94984409    -0.54400
C1567       C  0.55021289  0.44017304  0.48976233     0.08800
C1568       C  0.56529586  0.47915225  0.51647324     0.19700
C1569       C  0.57501454  0.51187318  0.94747770    -0.55100
C1570       C  0.55816723  0.50704596  0.48793909     0.08900
C1571       C  0.62601873  0.50255146  0.97875943    -0.54600
C1572       C  0.60920511  0.49747857  0.51781468     0.09400
H1573       H  0.56140348  0.42054560  0.92956307     0.14000
H1574       H  0.55248568  0.47433348  0.54873028    -0.00300
H1575       H  0.57390763  0.03087822  0.92369854     0.14300
H1576       H  0.65669331  0.01293038  0.47584948     0.14100
C1577       C  0.53087145  0.07357339  0.54981994     0.85800
C1578       C  0.98725731  0.04356655  0.54321300    -0.54400
C1579       C  0.97719684  0.02362288  0.00488312     0.08800
C1580       C  0.51291940  0.03654639  0.97567959     0.19700
C1581       C  0.54859362  0.04741222  0.54182000    -0.55100
C1582       C  0.54035236  0.02839388  0.00277866     0.08900
C1583       C  0.54164056  0.10151728  0.51125392    -0.54600
C1584       C  0.53395018  0.08257528  0.97341171     0.09400
H1585       H  0.96542736  0.04067336  0.56485461     0.14000
H1586       H  0.00395452  0.52101654  0.94339976    -0.00300
H1587       H  0.56683667  0.04456326  0.56534248     0.14300
H1588       H  0.55687188  0.13398517  0.01532957     0.14100
C1589       C  0.88095431  0.48567519  0.94172996     0.85800
C1590       C  0.92555992  0.00650592  0.94997131    -0.54400
C1591       C  0.93462108  0.50076584  0.48909684     0.08800
C1592       C  0.90019842  0.47232680  0.51761104     0.19700
C1593       C  0.86613173  0.44144237  0.95132305    -0.55100
C1594       C  0.87638599  0.43319226  0.49089986     0.08900
C1595       C  0.86761869  0.50149188  0.97933950    -0.54600
C1596       C  0.87383256  0.49019559  0.51919936     0.09400
H1597       H  0.94670308  0.02684568  0.92789624     0.14000
H1598       H  0.90935639  0.46731172  0.54935964    -0.00300
H1599       H  0.84673203  0.41700817  0.92957723     0.14300
H1600       H  0.85309230  0.01681660  0.47432349     0.14100
C1601       C  0.81234394  0.34322666  0.56048550     0.85800
C1602       C  0.83451478  0.32109448  0.55231836    -0.54400
C1603       C  0.84948300  0.32806701  0.01145273     0.08800
C1604       C  0.84111658  0.35527693  0.98324745     0.19700
C1605       C  0.84276442  0.38701171  0.55050017    -0.55100
C1606       C  0.85643722  0.39456315  0.00975365     0.08900
C1607       C  0.78226266  0.32858428  0.52331617    -0.54600
C1608       C  0.79708297  0.33610896  0.98310384     0.09400
H1609       H  0.83883513  0.30353510  0.57567392     0.14000
H1610       H  0.85324729  0.35991881  0.95064799    -0.00300
H1611       H  0.85087581  0.41176103  0.57277211     0.14300
H1612       H  0.75129770  0.31651923  0.02792326     0.14100
Fe1613     Fe  0.65073775  0.22906030  0.76336786     1.65800
Fe1614     Fe  0.56956163  0.23494349  0.76284969     1.73200
Fe1615     Fe  0.65918298  0.32111050  0.76342248     1.54400
O1616       O  0.69714721  0.32196991  0.81038648    -0.82300
O1617       O  0.56896753  0.26756437  0.71217802    -0.80600
O1618       O  0.68444738  0.25915236  0.81571801    -0.84800
O1619       O  0.69468963  0.26566988  0.72244738    -0.79700
O1620       O  0.62931160  0.32787682  0.81261285    -0.81500
O1621       O  0.56154356  0.19027030  0.71936485    -0.84200
C1622       C  0.70731939  0.29956979  0.70533363     0.96600
C1623       C  0.70208723  0.29552994  0.82834631     1.04000
O1624       O  0.62652316  0.26185722  0.76306563    -1.13200
O1625       O  0.56423092  0.19980911  0.81385056    -0.75600
O1626       O  0.61122791  0.18710250  0.80456263    -0.79100
O1627       O  0.69395228  0.32190031  0.71474380    -0.79800
C1628       C  0.58122676  0.18124938  0.82351460     0.95500
O1629       O  0.61882182  0.19601432  0.71132310    -0.77700
O1630       O  0.56917934  0.27537188  0.80620742    -0.82900
C1631       C  0.59103072  0.30327474  0.69973614     0.98100
C1632       C  0.59434047  0.30845940  0.82391868     1.04000
O1633       O  0.62436518  0.32688211  0.71679642    -0.78600
C1634       C  0.58353719  0.18078311  0.70072852     1.02300
Fe1635     Fe  0.83923882  0.09758069  0.73761733     1.65800
Fe1636     Fe  0.75123887  0.00798190  0.73407877     1.73200
Fe1637     Fe  0.75489945  0.09789428  0.73580315     1.54400
O1638       O  0.78842604  0.13650753  0.78481074    -0.82300
O1639       O  0.71407392  0.00442676  0.68558604    -0.80600
O1640       O  0.84424879  0.13822640  0.78470110    -0.84800
O1641       O  0.84401185  0.13588891  0.68973646    -0.79700
O1642       O  0.71592135  0.06230255  0.78072300    -0.81500
O1643       O  0.78471330  0.00482089  0.68609463    -0.84200
C1644       C  0.82275368  0.14843521  0.67537213     0.96600
C1645       C  0.82252282  0.15008519  0.79915462     1.04000
O1646       O  0.78183802  0.06773903  0.73617754    -1.13200
O1647       O  0.78519579  0.00390320  0.78137580    -0.75600
O1648       O  0.84155033  0.06236988  0.78482543    -0.79100
O1649       O  0.78986981  0.13707994  0.69042082    -0.79800
C1650       C  0.81892667  0.02676726  0.79725408     0.95500
O1651       O  0.84228505  0.06163680  0.69074570    -0.77700
O1652       O  0.71323646  0.00370989  0.78168481    -0.82900
C1653       C  0.70540276  0.02887762  0.67023987     0.98100
C1654       C  0.70246656  0.02730044  0.79535888     1.04000
O1655       O  0.71862804  0.06371358  0.68646229    -0.78600
C1656       C  0.81918796  0.02747669  0.67371305     1.02300
C1657       C  0.78888274  0.30993200  0.63395062    -0.20900
C1658       C  0.79170074  0.33799121  0.60364288    -0.07500
C1659       C  0.77034127  0.35728764  0.61179941     0.13400
C1660       C  0.74332185  0.34377611  0.64472499    -0.21000
C1661       C  0.73818675  0.31337880  0.67243344    -0.07500
C1662       C  0.76321064  0.29808638  0.66847695     0.13300
C1663       C  0.76387009  0.26989443  0.70083931    -0.24300
H1664       H  0.80581546  0.29597539  0.63072587     0.14600
H1665       H  0.72602318  0.35744425  0.64891479     0.14700
C1666       C  0.77613519  0.39325671  0.58746109    -0.24300
H1667       H  0.78812495  0.26486257  0.69548297     0.04900
H1668       H  0.73656744  0.24019189  0.69870433     0.08100
H1669       H  0.76795206  0.28307353  0.73358949     0.08100
H1670       H  0.77416092  0.38927727  0.05199553     0.08100
H1671       H  0.80451715  0.41975817  0.59672077     0.08100
H1672       H  0.75413397  0.40117001  0.59530856     0.04900
C1673       C  0.76930068  0.29625240  0.91596457    -0.20900
C1674       C  0.77311885  0.32675109  0.94333605    -0.07500
C1675       C  0.75473000  0.34801030  0.93201450     0.13400
C1676       C  0.73355299  0.33859537  0.89328705    -0.21000
C1677       C  0.72846411  0.30693455  0.86643606    -0.07500
C1678       C  0.74702749  0.28559971  0.87797663     0.13300
C1679       C  0.74422923  0.25188129  0.85061371    -0.24300
H1680       H  0.78277156  0.27972747  0.92517873     0.14600
H1681       H  0.71954655  0.35502919  0.88487039     0.14700
C1682       C  0.75653733  0.37998750  0.96101808    -0.24300
H1683       H  0.76339336  0.24146480  0.86293903     0.04900
H1684       H  0.75306068  0.26231824  0.81743892     0.08100
H1685       H  0.71426042  0.22549870  0.85046473     0.08100
H1686       H  0.78701029  0.40202067  0.97001408     0.08100
H1687       H  0.73698654  0.36092328  0.49277194     0.08100
H1688       H  0.74388526  0.39630672  0.94555911     0.04900
C1689       C  0.82479817  0.47777134  0.89828973    -0.20900
C1690       C  0.86513083  0.98978722  0.89955531    -0.07500
C1691       C  0.88603354  0.00528325  0.86131682     0.13400
C1692       C  0.87052858  0.01800850  0.82895531    -0.21000
C1693       C  0.83299904  0.01138258  0.83150587    -0.07500
C1694       C  0.80981785  0.99001529  0.86631199     0.13300
C1695       C  0.76622277  0.47577048  0.86772720    -0.24300
H1696       H  0.80718538  0.46200596  0.92533838     0.14600
H1697       H  0.88719666  0.03156080  0.80051375     0.14700
C1698       C  0.92141282  0.00366439  0.85058540    -0.24300
H1699       H  0.75309928  0.46001477  0.89795305     0.04900
H1700       H  0.74919591  0.45492765  0.84079620     0.08100
H1701       H  0.76818883  0.00884506  0.86885184     0.08100
H1702       H  0.92519073  0.98317376  0.87172444     0.08100
H1703       H  0.94749452  0.03437252  0.85174181     0.08100
H1704       H  0.91811671  0.99098675  0.81768462     0.04900
C1705       C  0.88095064  0.00790333  0.59791419    -0.20900
C1706       C  0.85935245  0.99832348  0.55932388    -0.07500
C1707       C  0.82198711  0.99381589  0.56072327     0.13400
C1708       C  0.80987948  0.00328279  0.59862878    -0.21000
C1709       C  0.83252724  0.01480621  0.63613621    -0.07500
C1710       C  0.86783948  0.01567197  0.63625288     0.13300
C1711       C  0.89118696  0.02356178  0.67701172    -0.24300
H1712       H  0.90853891  0.00984623  0.59841837     0.14600
H1713       H  0.78213744  0.00132467  0.59897085     0.14700
C1714       C  0.78999631  0.47417001  0.52538297    -0.24300
H1715       H  0.91639500  0.02002241  0.67192552     0.04900
H1716       H  0.87289898  0.00172388  0.70162120     0.08100
H1717       H  0.90209498  0.05464034  0.68913287     0.08100
H1718       H  0.79632251  0.45743677  0.50161298     0.08100
H1719       H  0.79287418  0.00305011  0.00642326     0.08100
H1720       H  0.76375279  0.95361059  0.53713885     0.04900
C1721       C  0.51944322  0.09174447  0.62552505    -0.20900
C1722       C  0.54516555  0.09843564  0.59192996    -0.07500
C1723       C  0.58416002  0.13125066  0.59708228     0.13400
C1724       C  0.59469992  0.15731979  0.63236445    -0.21000
C1725       C  0.56857717  0.15172896  0.66424496    -0.07500
C1726       C  0.53049046  0.11816301  0.66119955     0.13300
C1727       C  0.50154522  0.10959925  0.69565009    -0.24300
H1728       H  0.49041272  0.06600673  0.62459640     0.14600
H1729       H  0.62412915  0.18286856  0.63476197     0.14700
C1730       C  0.61604431  0.14188092  0.56582597    -0.24300
H1731       H  0.47398470  0.08090959  0.68933763     0.04900
H1732       H  0.49486750  0.13391292  0.69714786     0.08100
H1733       H  0.51325890  0.10730520  0.72711973     0.08100
H1734       H  0.62456740  0.17034115  0.05030919     0.08100
H1735       H  0.60874064  0.11833030  0.54137149     0.08100
H1736       H  0.64233053  0.14690780  0.58321830     0.04900
C1737       C  0.59485470  0.15033096  0.88434757    -0.20900
C1738       C  0.56717736  0.15319036  0.85970048    -0.07500
C1739       C  0.52784317  0.13098726  0.87161712     0.13400
C1740       C  0.51770653  0.10760374  0.90854101    -0.21000
C1741       C  0.54560220  0.10552961  0.93340665    -0.07500
C1742       C  0.58469535  0.12755914  0.92144788     0.13300
C1743       C  0.61630104  0.12974144  0.94925151    -0.24300
H1744       H  0.62509135  0.16784764  0.87590157     0.14600
H1745       H  0.98701474  0.09045892  0.91720274     0.14700
C1746       C  0.49629094  0.13120055  0.84561200    -0.24300
H1747       H  0.62036069  0.14872524  0.97770647     0.04900
H1748       H  0.64437962  0.14395221  0.93266585     0.08100
H1749       H  0.60860704  0.09926863  0.95925479     0.08100
H1750       H  0.49693292  0.12215759  0.81192799     0.08100
H1751       H  0.50006442  0.16158226  0.84669785     0.08100
H1752       H  0.96657273  0.10763774  0.85567476     0.04900
C1753       C  0.64109327  0.47669966  0.57085567    -0.20900
C1754       C  0.63260181  0.50557282  0.55724038    -0.07500
C1755       C  0.64878501  0.04055419  0.58031479     0.13400
C1756       C  0.67061116  0.04651235  0.61752603    -0.21000
C1757       C  0.67943303  0.01781570  0.63162717    -0.07500
C1758       C  0.66539360  0.48392077  0.60667633     0.13300
C1759       C  0.67576460  0.45286455  0.61723285    -0.24300
H1760       H  0.62957345  0.44885127  0.55248842     0.14600
H1761       H  0.68197259  0.07493087  0.63470382     0.14700
C1762       C  0.64527559  0.07511447  0.56544347    -0.24300
H1763       H  0.66189357  0.42671318  0.59453403     0.04900
H1764       H  0.66593412  0.44127905  0.64969569     0.08100
H1765       H  0.70754907  0.46645099  0.61551644     0.08100
H1766       H  0.63057327  0.08226629  0.59062905     0.08100
H1767       H  0.62907145  0.06883448  0.53470430     0.08100
H1768       H  0.67455345  0.10184509  0.56082677     0.04900
C1769       C  0.61443626  0.46914886  0.86878967    -0.20900
C1770       C  0.62060481  0.49990055  0.89854350    -0.07500
C1771       C  0.65197119  0.03897974  0.89088608     0.13400
C1772       C  0.67691775  0.04627999  0.85690312    -0.21000
C1773       C  0.67392823  0.01535421  0.83053138    -0.07500
C1774       C  0.63987221  0.47625726  0.83479921     0.13300
C1775       C  0.63151535  0.44216399  0.80440406    -0.24300
H1776       H  0.59013712  0.43899010  0.87162489     0.14600
H1777       H  0.70022774  0.07700454  0.85196111     0.14700
C1778       C  0.66181676  0.07560312  0.91806124    -0.24300
H1779       H  0.60425834  0.41395945  0.81220270     0.04900
H1780       H  0.65530240  0.43587596  0.80619727     0.08100
H1781       H  0.62860472  0.45029348  0.77117533     0.08100
H1782       H  0.69373311  0.08927527  0.43224041     0.08100
H1783       H  0.64397119  0.06956204  0.94644437     0.08100
H1784       H  0.65905920  0.09747220  0.89808043     0.04900
C1785       C  0.58676923  0.34717913  0.93314191    -0.20900
C1786       C  0.54994907  0.34314176  0.93035073    -0.07500
C1787       C  0.53271004  0.33646014  0.88852506     0.13400
C1788       C  0.54796062  0.32512149  0.85459694    -0.21000
C1789       C  0.58202193  0.32441736  0.85956829    -0.07500
C1790       C  0.60277695  0.33769964  0.89875671     0.13300
C1791       C  0.64097996  0.34021369  0.90532685    -0.24300
H1792       H  0.60351292  0.35757668  0.96271652     0.10800
H1793       H  0.53361721  0.31749084  0.82339165     0.14700
C1794       C  0.50056047  0.34361269  0.87704276    -0.24300
H1795       H  0.65238437  0.34942433  0.93865434     0.04900
H1796       H  0.66270261  0.36292636  0.88365767     0.08100
H1797       H  0.63757342  0.31040144  0.89861367     0.08100
H1798       H  0.47466597  0.32440541  0.89529524     0.08100
H1799       H  0.99347668  0.33903662  0.84191820     0.08100
H1800       H  0.51032494  0.37576993  0.88242168     0.04900
C1801       C  0.56424545  0.36378478  0.62566387    -0.20900
C1802       C  0.54328936  0.33541329  0.59219364    -0.07500
C1803       C  0.53772158  0.29611298  0.59637232     0.13400
C1804       C  0.55472834  0.28778751  0.63096645    -0.21000
C1805       C  0.57647619  0.31643256  0.66307216    -0.07500
C1806       C  0.58044079  0.35467432  0.66095110     0.13300
C1807       C  0.59979323  0.38515918  0.69698804    -0.24300
H1808       H  0.56760031  0.39314537  0.62552200     0.14600
H1809       H  0.55071932  0.25797639  0.63291187     0.14700
C1810       C  0.01687190  0.26245800  0.56496240    -0.24300
H1811       H  0.59963678  0.41319030  0.69088899     0.04900
H1812       H  0.63032246  0.39341983  0.70111047     0.08100
H1813       H  0.58435372  0.37229644  0.72725648     0.08100
H1814       H  0.53393758  0.25215256  0.55089912     0.08100
H1815       H  0.00193446  0.26836066  0.53899734     0.08100
H1816       H  0.99445954  0.23588582  0.58227026     0.04900
C1817       C  0.80981145  0.17726520  0.86484547    -0.20900
C1818       C  0.83665725  0.18027789  0.83489445    -0.07500
C1819       C  0.87535851  0.21260791  0.83898211     0.13400
C1820       C  0.88664107  0.23895473  0.87465787    -0.21000
C1821       C  0.86061125  0.23379301  0.90727447    -0.07500
C1822       C  0.82079081  0.20345423  0.90051573     0.13300
C1823       C  0.78892306  0.19747534  0.93019516    -0.24300
H1824       H  0.77980391  0.15334813  0.86083578     0.14600
H1825       H  0.91614406  0.26362160  0.87630617     0.14700
C1826       C  0.90479572  0.22042175  0.80530456    -0.24300
H1827       H  0.75988200  0.17424508  0.91747064     0.04900
H1828       H  0.78852140  0.22548574  0.93380497     0.08100
H1829       H  0.79183574  0.18715036  0.96205618     0.08100
H1830       H  0.89397311  0.22339558  0.77354203     0.08100
H1831       H  0.91049118  0.19541444  0.80405964     0.08100
H1832       H  0.93286911  0.24861376  0.81216795     0.04900
C1833       C  0.83311350  0.22336050  0.59039068    -0.20900
C1834       C  0.86361233  0.22648761  0.56685530    -0.07500
C1835       C  0.88055332  0.20403263  0.57866094     0.13400
C1836       C  0.86750250  0.18013828  0.61503417    -0.21000
C1837       C  0.83659153  0.17655355  0.63889040    -0.07500
C1838       C  0.81903856  0.19857039  0.62605466     0.13300
C1839       C  0.78516830  0.19609206  0.64876037    -0.24300
H1840       H  0.81871727  0.23861833  0.57933035     0.14600
H1841       H  0.88068113  0.16295009  0.62381020     0.14700
C1842       C  0.91168396  0.20436412  0.55237759    -0.24300
H1843       H  0.77669709  0.21669551  0.63490040     0.04900
H1844       H  0.79278454  0.20459344  0.68307461     0.08100
H1845       H  0.75953446  0.16516213  0.64555671     0.08100
H1846       H  0.93579496  0.23568304  0.54888592     0.08100
H1847       H  0.90011501  0.19105421  0.52011721     0.08100
H1848       H  0.92313386  0.18674507  0.56740251     0.04900
C1849       C  0.87439700  0.75751909  0.45231194     0.85800
C1850       C  0.85901902  0.78598158  0.45899362    -0.54400
C1851       C  0.86822290  0.80544712  0.99688748     0.08800
C1852       C  0.89508984  0.79695227  0.02461949     0.19700
C1853       C  0.91848516  0.78458919  0.45926492    -0.55100
C1854       C  0.92958439  0.80643659  0.99559168     0.08900
C1855       C  0.86256261  0.73086308  0.49159641    -0.54600
C1856       C  0.87300974  0.75080127  0.02844231     0.09400
H1857       H  0.84117705  0.78910932  0.43528290     0.14000
H1858       H  0.90374802  0.81321265  0.05602270    -0.00300
H1859       H  0.93917092  0.78071055  0.44184682     0.14300
H1860       H  0.84776163  0.69801477  0.98816167     0.14100
C1861       C  0.52901078  0.84669476  0.05168228     0.85800
C1862       C  0.54108262  0.89115900  0.04589258    -0.54400
C1863       C  0.52880821  0.89935970  0.50780293     0.08800
C1864       C  0.50430754  0.86135637  0.47983949     0.19700
C1865       C  0.98438238  0.82392159  0.04641414    -0.55100
C1866       C  0.97158330  0.83033906  0.50921631     0.08900
C1867       C  0.54434821  0.83842200  0.51027677    -0.54600
C1868       C  0.53209594  0.84583899  0.47217217     0.09400
H1869       H  0.56168700  0.91569937  0.06639327     0.14000
H1870       H  0.99204764  0.86756540  0.45086109    -0.00300
H1871       H  0.96524233  0.80334185  0.07025549     0.14300
H1872       H  0.56411360  0.82744139  0.51195143     0.14100
C1873       C  0.59794244  0.99021784  0.44068492     0.85800
C1874       C  0.56685846  0.94594120  0.44951358    -0.54400
C1875       C  0.55033658  0.93909443  0.98917147     0.08800
C1876       C  0.56577646  0.97803470  0.01581965     0.19700
C1877       C  0.57588018  0.01253676  0.44759523    -0.55100
C1878       C  0.55919371  0.00616549  0.98714474     0.08900
C1879       C  0.62605904  0.00184442  0.47909575    -0.54600
C1880       C  0.60953770  0.99565417  0.01744668     0.09400
H1881       H  0.56044965  0.92081333  0.42884548     0.14000
H1882       H  0.55283502  0.97337324  0.04799210    -0.00300
H1883       H  0.57225544  0.53170956  0.42442634     0.14300
H1884       H  0.65677273  0.51431596  0.97534601     0.14100
C1885       C  0.53099126  0.57352749  0.05027364     0.85800
C1886       C  0.98657237  0.54365647  0.04350177    -0.54400
C1887       C  0.97563349  0.52502047  0.50435759     0.08800
C1888       C  0.51114340  0.53629703  0.47596822     0.19700
C1889       C  0.54863067  0.54727579  0.04201735    -0.55100
C1890       C  0.53885257  0.52885622  0.50343134     0.08900
C1891       C  0.54188038  0.60157672  0.01181073    -0.54600
C1892       C  0.53166496  0.58225967  0.47309137     0.09400
H1893       H  0.96479364  0.54065577  0.06524156     0.14000
H1894       H  0.00493829  0.02081245  0.44334452    -0.00300
H1895       H  0.56748937  0.54484889  0.06513402     0.14300
H1896       H  0.55415984  0.63408069  0.51434993     0.14100
C1897       C  0.88156209  0.98516313  0.44140528     0.85800
C1898       C  0.92355101  0.50614617  0.44951128    -0.54400
C1899       C  0.93613029  0.00062800  0.98962115     0.08800
C1900       C  0.90126598  0.97336167  0.01822982     0.19700
C1901       C  0.86652532  0.94084384  0.45108341    -0.55100
C1902       C  0.87637905  0.93451128  0.99152086     0.08900
C1903       C  0.86840562  0.00100627  0.47916282    -0.54600
C1904       C  0.87628736  0.99284721  0.01970564     0.09400
H1905       H  0.94429159  0.52757102  0.42776478     0.14000
H1906       H  0.90986659  0.96779790  0.05003458    -0.00300
H1907       H  0.84664880  0.91639127  0.42962482     0.14300
H1908       H  0.85248984  0.51745619  0.97432945     0.14100
C1909       C  0.81188341  0.84441463  0.06059305     0.85800
C1910       C  0.83431527  0.82256558  0.05250927    -0.54400
C1911       C  0.84930173  0.82780472  0.51287606     0.08800
C1912       C  0.84079934  0.85458841  0.48406332     0.19700
C1913       C  0.84212074  0.88825772  0.05073596    -0.55100
C1914       C  0.85609270  0.89412265  0.51000645     0.08900
C1915       C  0.78185077  0.82964805  0.02339009    -0.54600
C1916       C  0.79672716  0.83545913  0.48380746     0.09400
H1917       H  0.83878089  0.80504066  0.07579668     0.14000
H1918       H  0.85294797  0.85891991  0.45150078    -0.00300
H1919       H  0.85019975  0.91297052  0.07304612     0.14300
H1920       H  0.75093564  0.81614935  0.52854419     0.14100
Fe1921     Fe  0.65078790  0.72974259  0.26362390     1.65800
Fe1922     Fe  0.56947594  0.73577837  0.26238145     1.73200
Fe1923     Fe  0.65945521  0.82221001  0.26381958     1.54400
O1924       O  0.69595374  0.82309934  0.31243331    -0.82300
O1925       O  0.56959239  0.76986488  0.21286588    -0.80600
O1926       O  0.68650791  0.76140955  0.31421374    -0.84800
O1927       O  0.69283354  0.76484808  0.22032668    -0.79700
O1928       O  0.62840433  0.82937244  0.31120792    -0.81500
O1929       O  0.56140043  0.69211248  0.21748932    -0.84200
C1930       C  0.70703221  0.79977755  0.20525345     0.96600
C1931       C  0.70249265  0.79713197  0.32862444     1.04000
O1932       O  0.62658915  0.76267395  0.26313691    -1.13200
O1933       O  0.56295809  0.69871531  0.31195087    -0.75600
O1934       O  0.61264624  0.68967425  0.30703077    -0.79100
O1935       O  0.69571434  0.82333226  0.21698462    -0.79800
C1936       C  0.58111928  0.68190031  0.32373950     0.95500
O1937       O  0.61741497  0.69435778  0.21343080    -0.77700
O1938       O  0.56912316  0.77517717  0.30722505    -0.82900
C1939       C  0.59250920  0.80491918  0.19928383     0.98100
C1940       C  0.59384533  0.80913488  0.32366653     1.04000
O1941       O  0.62624878  0.82804119  0.21550609    -0.78600
C1942       C  0.58281385  0.68072617  0.20106588     1.02300
Fe1943     Fe  0.83834457  0.59776848  0.23918894     1.65800
Fe1944     Fe  0.74975249  0.50921819  0.23429275     1.73200
Fe1945     Fe  0.75494565  0.59979693  0.23681759     1.54400
O1946       O  0.78673149  0.63535061  0.28835574    -0.82300
O1947       O  0.71287122  0.50739039  0.18669752    -0.80600
O1948       O  0.84319598  0.63847674  0.28601226    -0.84800
O1949       O  0.84441351  0.63638369  0.19079218    -0.79700
O1950       O  0.71328449  0.56268983  0.27884740    -0.81500
O1951       O  0.78284662  0.50642691  0.18530844    -0.84200
C1952       C  0.82441229  0.65102179  0.17810842     0.96600
C1953       C  0.82110963  0.64923734  0.30193783     1.04000
O1954       O  0.78104777  0.56882799  0.23718009    -1.13200
O1955       O  0.78329904  0.50334692  0.28090809    -0.75600
O1956       O  0.83927894  0.56199774  0.28683536    -0.79100
O1957       O  0.79235375  0.64110131  0.19448192    -0.79800
C1958       C  0.81661534  0.52589801  0.29792541     0.95500
O1959       O  0.84138319  0.56159838  0.19260794    -0.77700
O1960       O  0.71208817  0.50494441  0.28245918    -0.82900
C1961       C  0.70629811  0.53280143  0.16974634     0.98100
C1962       C  0.70025116  0.52811242  0.29445500     1.04000
O1963       O  0.72094747  0.56826849  0.18483815    -0.78600
C1964       C  0.81781609  0.52841794  0.17402038     1.02300
C1965       C  0.78780832  0.81004076  0.13319149    -0.20900
C1966       C  0.79114139  0.83884818  0.10361170    -0.07500
C1967       C  0.76990687  0.85823706  0.11210172     0.13400
C1968       C  0.74296758  0.84454684  0.14509679    -0.21000
C1969       C  0.73751595  0.81358039  0.17211060    -0.07500
C1970       C  0.76196530  0.79774388  0.16746549     0.13300
C1971       C  0.76178676  0.76845714  0.19889789    -0.24300
H1972       H  0.80428244  0.79562097  0.12947522     0.14600
H1973       H  0.72586318  0.85838021  0.14980325     0.14700
C1974       C  0.77550756  0.89423170  0.08785118    -0.24300
H1975       H  0.78606264  0.76349251  0.19355957     0.04900
H1976       H  0.73438291  0.73892275  0.19567506     0.08100
H1977       H  0.76536519  0.78065771  0.23204388     0.08100
H1978       H  0.77334201  0.88869126  0.55178856     0.08100
H1979       H  0.80383377  0.92086624  0.09703535     0.08100
H1980       H  0.75340444  0.90198442  0.09578388     0.04900
C1981       C  0.77025409  0.79751843  0.41532297    -0.20900
C1982       C  0.77283766  0.82660986  0.44400162    -0.07500
C1983       C  0.75358525  0.84726871  0.43369935     0.13400
C1984       C  0.73251103  0.83838936  0.39497374    -0.21000
C1985       C  0.72873155  0.80813654  0.36679037    -0.07500
C1986       C  0.74848007  0.78771902  0.37704785     0.13300
C1987       C  0.74763610  0.75599978  0.34792995    -0.24300
H1988       H  0.78437983  0.78139327  0.42357325     0.14600
H1989       H  0.71773913  0.85424213  0.38747253     0.14700
C1990       C  0.75465154  0.87833197  0.46352028    -0.24300
H1991       H  0.76755080  0.74627089  0.35955214     0.04900
H1992       H  0.75677649  0.76815773  0.31535494     0.08100
H1993       H  0.71817903  0.72878657  0.34651467     0.08100
H1994       H  0.78500276  0.90025382  0.47318110     0.08100
H1995       H  0.73798248  0.86338200  0.99176300     0.08100
H1996       H  0.74218396  0.89497863  0.44840963     0.04900
C1997       C  0.82521885  0.97692819  0.39772484    -0.20900
C1998       C  0.86271408  0.48706522  0.39880130    -0.07500
C1999       C  0.88395832  0.50409610  0.36107995     0.13400
C2000       C  0.86837085  0.51726414  0.32930476    -0.21000
C2001       C  0.83043323  0.50949998  0.33153532    -0.07500
C2002       C  0.80684074  0.48609488  0.36527229     0.13300
C2003       C  0.76610354  0.97358666  0.36690349    -0.24300
H2004       H  0.80748963  0.96023693  0.42437572     0.14600
H2005       H  0.88543278  0.53220783  0.30147775     0.14700
C2006       C  0.92015229  0.50411760  0.35026175    -0.24300
H2007       H  0.75289041  0.95678132  0.39660535     0.04900
H2008       H  0.74987236  0.95313667  0.33940422     0.08100
H2009       H  0.76340198  0.50236794  0.36856918     0.08100
H2010       H  0.92488461  0.48418216  0.37124915     0.08100
H2011       H  0.94552728  0.53531189  0.35156475     0.08100
H2012       H  0.91727850  0.49176884  0.31726819     0.04900
C2013       C  0.88001693  0.50921548  0.09804831    -0.20900
C2014       C  0.85848717  0.49943273  0.05942413    -0.07500
C2015       C  0.82127439  0.49534798  0.06058812     0.13400
C2016       C  0.80905064  0.50490300  0.09842784    -0.21000
C2017       C  0.83146126  0.51621203  0.13614870    -0.07500
C2018       C  0.86687945  0.51721272  0.13627612     0.13300
C2019       C  0.89040046  0.52546619  0.17696069    -0.24300
H2020       H  0.90756555  0.51110147  0.09864847     0.14600
H2021       H  0.78138207  0.50311365  0.09856513     0.14700
C2022       C  0.79302375  0.97821924  0.02352197    -0.24300
H2023       H  0.91539167  0.52154618  0.17198921     0.04900
H2024       H  0.87215881  0.50408047  0.20191998     0.08100
H2025       H  0.90168383  0.55678130  0.18852895     0.08100
H2026       H  0.79869116  0.95986610  0.00122162     0.08100
H2027       H  0.78708160  0.49792919  0.50952921     0.08100
H2028       H  0.76276985  0.45689455  0.03667001     0.04900
C2029       C  0.51971777  0.59080550  0.12657769    -0.20900
C2030       C  0.54527794  0.59826969  0.09253890    -0.07500
C2031       C  0.58404186  0.63163670  0.09752382     0.13400
C2032       C  0.59428547  0.65775142  0.13272876    -0.21000
C2033       C  0.56819309  0.65151039  0.16482159    -0.07500
C2034       C  0.53066926  0.61703749  0.16245670     0.13300
C2035       C  0.50254965  0.60718359  0.19816982    -0.24300
H2036       H  0.49102791  0.56446582  0.12592607     0.14600
H2037       H  0.62343682  0.68381744  0.13498408     0.14700
C2038       C  0.61588727  0.64288180  0.06608970    -0.24300
H2039       H  0.47541809  0.57791572  0.19238415     0.04900
H2040       H  0.49487179  0.63068167  0.20102226     0.08100
H2041       H  0.51562074  0.60530577  0.22886642     0.08100
H2042       H  0.62176478  0.67118574  0.54925951     0.08100
H2043       H  0.60896134  0.61910799  0.04202255     0.08100
H2044       H  0.64263376  0.64907408  0.08335162     0.04900
C2045       C  0.59346789  0.64959622  0.38430465    -0.20900
C2046       C  0.56633078  0.65336963  0.35963572    -0.07500
C2047       C  0.52682802  0.63138229  0.37118540     0.13400
C2048       C  0.51612511  0.60750196  0.40780214    -0.21000
C2049       C  0.54361251  0.60486963  0.43285144    -0.07500
C2050       C  0.58277085  0.62648740  0.42115061     0.13300
C2051       C  0.61404154  0.62837627  0.44928407    -0.24300
H2052       H  0.62380358  0.66677343  0.37622315     0.14600
H2053       H  0.98632501  0.59250867  0.41779833     0.14700
C2054       C  0.49565692  0.63245398  0.34530709    -0.24300
H2055       H  0.61841631  0.64791336  0.47731427     0.04900
H2056       H  0.64210324  0.64195313  0.43276372     0.08100
H2057       H  0.60587502  0.59796144  0.45993960     0.08100
H2058       H  0.49626608  0.62371787  0.31148798     0.08100
H2059       H  0.49986679  0.66301681  0.34691596     0.08100
H2060       H  0.96623223  0.61203127  0.35801890     0.04900
C2061       C  0.64131562  0.97510101  0.07089051    -0.20900
C2062       C  0.63273049  0.00381214  0.05696276    -0.07500
C2063       C  0.65145138  0.54386346  0.07727162     0.13400
C2064       C  0.67412906  0.55104523  0.11410607    -0.21000
C2065       C  0.68085060  0.52162888  0.13074530    -0.07500
C2066       C  0.66546683  0.98257177  0.10690628     0.13300
C2067       C  0.67566667  0.95151315  0.11811280    -0.24300
H2068       H  0.62995202  0.94718006  0.05267470     0.14600
H2069       H  0.68725869  0.58056882  0.12935104     0.14700
C2070       C  0.64836382  0.57813235  0.06054315    -0.24300
H2071       H  0.66146228  0.92496072  0.09596063     0.04900
H2072       H  0.66608225  0.94059080  0.15082347     0.08100
H2073       H  0.70740212  0.96483838  0.11613039     0.08100
H2074       H  0.63507357  0.58700490  0.08574661     0.08100
H2075       H  0.63071120  0.57051420  0.03069735     0.08100
H2076       H  0.67765110  0.60402973  0.05384231     0.04900
C2077       C  0.61599681  0.96964074  0.36950048    -0.20900
C2078       C  0.62133236  0.00026011  0.39894685    -0.07500
C2079       C  0.65120189  0.54050579  0.39094118     0.13400
C2080       C  0.67585673  0.54751328  0.35669262    -0.21000
C2081       C  0.67149527  0.51658197  0.32932760    -0.07500
C2082       C  0.64156981  0.97724342  0.33550144     0.13300
C2083       C  0.63444644  0.94291923  0.30610581    -0.24300
H2084       H  0.59251346  0.93909182  0.37290667     0.14600
H2085       H  0.69997145  0.57792357  0.35223456     0.14700
C2086       C  0.66197741  0.57705660  0.41865140    -0.24300
H2087       H  0.60778726  0.91430774  0.31438323     0.04900
H2088       H  0.65898182  0.93783667  0.30861594     0.08100
H2089       H  0.63111636  0.94996312  0.27254104     0.08100
H2090       H  0.69292270  0.58947550  0.93117654     0.08100
H2091       H  0.64343706  0.57124814  0.44635912     0.08100
H2092       H  0.66087351  0.59997407  0.39879944     0.04900
C2093       C  0.58745594  0.84986671  0.43220150    -0.20900
C2094       C  0.54998926  0.84426269  0.43012264    -0.07500
C2095       C  0.53180349  0.83616208  0.38873829     0.13400
C2096       C  0.54666455  0.82431190  0.35489364    -0.21000
C2097       C  0.58159106  0.82527392  0.35919347    -0.07500
C2098       C  0.60347945  0.84075090  0.39750778     0.13300
C2099       C  0.64301420  0.84613348  0.40280447    -0.24300
H2100       H  0.60465522  0.86128177  0.46142413     0.10800
H2101       H  0.53147080  0.81527731  0.32418327     0.14700
C2102       C  0.49926004  0.84274104  0.37750565    -0.24300
H2103       H  0.65538875  0.85706755  0.43552491     0.04900
H2104       H  0.66317149  0.86871277  0.37986875     0.08100
H2105       H  0.64125184  0.81698016  0.39696492     0.08100
H2106       H  0.47376141  0.82387799  0.39646245     0.08100
H2107       H  0.98818597  0.83321847  0.34282170     0.08100
H2108       H  0.50892880  0.87495286  0.38220267     0.04900
C2109       C  0.56426053  0.86397465  0.12550858    -0.20900
C2110       C  0.54401273  0.83553803  0.09189125    -0.07500
C2111       C  0.53965136  0.79673951  0.09569551     0.13400
C2112       C  0.55760348  0.78918759  0.12986315    -0.21000
C2113       C  0.57836119  0.81782881  0.16227834    -0.07500
C2114       C  0.58088849  0.85538004  0.16069648     0.13300
C2115       C  0.59891505  0.88541664  0.19733196    -0.24300
H2116       H  0.56637176  0.89276839  0.12573747     0.14600
H2117       H  0.55466202  0.75982989  0.13162362     0.14700
C2118       C  0.01573613  0.76168262  0.06484451    -0.24300
H2119       H  0.59810605  0.91311154  0.19138984     0.04900
H2120       H  0.62955546  0.89435450  0.20229415     0.08100
H2121       H  0.58296215  0.87177140  0.22713545     0.08100
H2122       H  0.53637483  0.75362318  0.04932533     0.08100
H2123       H  0.00043205  0.76725176  0.03902450     0.08100
H2124       H  0.99359401  0.73546663  0.08281182     0.04900
C2125       C  0.80851467  0.67588721  0.36815631    -0.20900
C2126       C  0.83537196  0.67877296  0.33823164    -0.07500
C2127       C  0.87429048  0.71054048  0.34275600     0.13400
C2128       C  0.88546640  0.73701631  0.37814519    -0.21000
C2129       C  0.85946993  0.73208528  0.41063288    -0.07500
C2130       C  0.81961605  0.70192060  0.40397122     0.13300
C2131       C  0.78787512  0.69613403  0.43377244    -0.24300
H2132       H  0.77842569  0.65226640  0.36398168     0.14600
H2133       H  0.91499146  0.76161326  0.37968877     0.14700
C2134       C  0.90431005  0.71751701  0.31013084    -0.24300
H2135       H  0.75879335  0.67282275  0.42122994     0.04900
H2136       H  0.78747449  0.72421359  0.43726507     0.08100
H2137       H  0.79092896  0.68592054  0.46565006     0.08100
H2138       H  0.89452517  0.72074163  0.27785737     0.08100
H2139       H  0.90931191  0.69201125  0.30983661     0.08100
H2140       H  0.93260836  0.74529111  0.31747271     0.04900
C2141       C  0.83336670  0.72532675  0.09271553    -0.20900
C2142       C  0.86391210  0.72885970  0.06897414    -0.07500
C2143       C  0.88147471  0.70702340  0.08089794     0.13400
C2144       C  0.86957716  0.68405833  0.11806042    -0.21000
C2145       C  0.83830866  0.67966018  0.14187593    -0.07500
C2146       C  0.81964660  0.70047761  0.12839881     0.13300
C2147       C  0.78441575  0.69600791  0.14982448    -0.24300
H2148       H  0.81832367  0.73987438  0.08145492     0.14600
H2149       H  0.88347384  0.66762637  0.12703829     0.14700
C2150       C  0.91136287  0.70620898  0.05334696    -0.24300
H2151       H  0.77470824  0.71527125  0.13509097     0.04900
H2152       H  0.79101720  0.70481683  0.18418919     0.08100
H2153       H  0.75988376  0.66445220  0.14636079     0.08100
H2154       H  0.93502434  0.73725213  0.04745613     0.08100
H2155       H  0.89817524  0.69114771  0.02214233     0.08100
H2156       H  0.92371501  0.68951163  0.06854775     0.04900
C2157       C  0.87420314  0.75744855  0.95113544     0.85800
C2158       C  0.85885464  0.78590627  0.95801055    -0.54400
C2159       C  0.86844938  0.80575716  0.49773463     0.08800
C2160       C  0.89536724  0.79737721  0.52560060     0.19700
C2161       C  0.91836466  0.78467434  0.95810066    -0.55100
C2162       C  0.92979721  0.80654176  0.49655314     0.08900
C2163       C  0.86235960  0.73061612  0.99030767    -0.54600
C2164       C  0.87318707  0.75123373  0.52963356     0.09400
H2165       H  0.84127654  0.78933833  0.93428511     0.14000
H2166       H  0.90410008  0.81378456  0.55692075    -0.00300
H2167       H  0.93918037  0.78148835  0.94016559     0.14300
H2168       H  0.84808225  0.69826252  0.48962519     0.14100
C2169       C  0.52949146  0.84772207  0.55147762     0.85800
C2170       C  0.54119745  0.89206727  0.54574854    -0.54400
C2171       C  0.52873930  0.89852658  0.00796118     0.08800
C2172       C  0.50413811  0.86061027  0.98000603     0.19700
C2173       C  0.98529012  0.82394137  0.54643516    -0.55100
C2174       C  0.97128255  0.83039164  0.00879170     0.08900
C2175       C  0.54365669  0.83711310  0.01055203    -0.54600
C2176       C  0.53167226  0.84480885  0.97245315     0.09400
H2177       H  0.56171495  0.91663657  0.56628636     0.14000
H2178       H  0.99269377  0.86790468  0.95080472    -0.00300
H2179       H  0.96654921  0.80355360  0.57063908     0.14300
H2180       H  0.56315105  0.82580658  0.01228412     0.14100
C2181       C  0.59749059  0.98916221  0.94046285     0.85800
C2182       C  0.56651353  0.94492856  0.94952871    -0.54400
C2183       C  0.55048456  0.93998285  0.48906317     0.08800
C2184       C  0.56591787  0.97887271  0.51586179     0.19700
C2185       C  0.57528869  0.01142586  0.94743591    -0.55100
C2186       C  0.55957866  0.00712755  0.48712569     0.08900
C2187       C  0.62575113  0.00108978  0.97865688    -0.54600
C2188       C  0.60968509  0.99636379  0.51786913     0.09400
H2189       H  0.55988374  0.91979305  0.92887639     0.14000
H2190       H  0.55275379  0.97413001  0.54791328    -0.00300
H2191       H  0.57344366  0.53119627  0.92370595     0.14300
H2192       H  0.65595384  0.51471112  0.47520525     0.14100
C2193       C  0.52956166  0.57396813  0.55047267     0.85800
C2194       C  0.98541972  0.54454687  0.54334040    -0.54400
C2195       C  0.97651840  0.52446084  0.00438815     0.08800
C2196       C  0.51248805  0.53665749  0.97529721     0.19700
C2197       C  0.54737402  0.54774813  0.54272837    -0.55100
C2198       C  0.53997325  0.52866955  0.00258446     0.08900
C2199       C  0.54022064  0.60155193  0.51165094    -0.54600
C2200       C  0.53335571  0.58271201  0.97299002     0.09400
H2201       H  0.96352354  0.54163931  0.56488831     0.14000
H2202       H  0.00466734  0.01999538  0.94405066    -0.00300
H2203       H  0.56618706  0.54555161  0.56605037     0.14300
H2204       H  0.55584172  0.63407600  0.01493473     0.14100
C2205       C  0.88167941  0.98522489  0.94221264     0.85800
C2206       C  0.92485414  0.50742834  0.94961043    -0.54400
C2207       C  0.93620984  0.00093590  0.48879851     0.08800
C2208       C  0.90146337  0.97344416  0.51738660     0.19700
C2209       C  0.86635811  0.94090200  0.95185160    -0.55100
C2210       C  0.87658404  0.93453594  0.49080778     0.08900
C2211       C  0.86879325  0.00141621  0.97986177    -0.54600
C2212       C  0.87628818  0.99265158  0.51901762     0.09400
H2213       H  0.94597146  0.52808680  0.92776155     0.14000
H2214       H  0.91019718  0.96791264  0.54913298    -0.00300
H2215       H  0.84659856  0.91653803  0.93024784     0.14300
H2216       H  0.84982143  0.51335243  0.47439189     0.14100
C2217       C  0.81182949  0.84487963  0.56073139     0.85800
C2218       C  0.83445337  0.82316610  0.55306822    -0.54400
C2219       C  0.84918686  0.82748115  0.01230888     0.08800
C2220       C  0.84093254  0.85464772  0.98389659     0.19700
C2221       C  0.84183496  0.88872748  0.55042723    -0.55100
C2222       C  0.85629516  0.89397030  0.01030213     0.08900
C2223       C  0.78174402  0.82960609  0.52360957    -0.54600
C2224       C  0.79689612  0.83562136  0.98355343     0.09400
H2225       H  0.83894822  0.80584229  0.57656680     0.14000
H2226       H  0.85317097  0.85922977  0.95135333    -0.00300
H2227       H  0.84963471  0.91361839  0.57240531     0.14300
H2228       H  0.75105330  0.81626145  0.02833190     0.14100
Fe2229     Fe  0.65086635  0.73044584  0.76306239     1.65800
Fe2230     Fe  0.56969474  0.73673246  0.76277211     1.73200
Fe2231     Fe  0.65971224  0.82302719  0.76385215     1.54400
O2232       O  0.69661161  0.82373641  0.81185427    -0.82300
O2233       O  0.56953715  0.77106086  0.71358503    -0.80600
O2234       O  0.68715875  0.76202492  0.81344090    -0.84800
O2235       O  0.69250248  0.76546033  0.71964695    -0.79700
O2236       O  0.62906666  0.83006746  0.81180162    -0.81500
O2237       O  0.56129002  0.69349944  0.71749092    -0.84200
C2238       C  0.70662598  0.80036692  0.70464369     0.96600
C2239       C  0.70329732  0.79779165  0.82782287     1.04000
O2240       O  0.62678744  0.76351135  0.76313306    -1.13200
O2241       O  0.56339672  0.69935084  0.81209744    -0.75600
O2242       O  0.61312214  0.69041183  0.80666584    -0.79100
O2243       O  0.69544526  0.82400963  0.71649175    -0.79800
C2244       C  0.58172330  0.68262537  0.82367496     0.95500
O2245       O  0.61704854  0.69530654  0.71285780    -0.77700
O2246       O  0.56973343  0.77588573  0.80785777    -0.82900
C2247       C  0.59239445  0.80613520  0.69999957     0.98100
C2248       C  0.59452771  0.80974828  0.82431134     1.04000
O2249       O  0.62620701  0.82919300  0.71608673    -0.78600
C2250       C  0.58247924  0.68209761  0.70061656     1.02300
Fe2251     Fe  0.83791255  0.59740828  0.73836615     1.65800
Fe2252     Fe  0.74987607  0.50834462  0.73361244     1.73200
Fe2253     Fe  0.75409581  0.59851483  0.73645309     1.54400
O2254       O  0.78559635  0.63414068  0.78800576    -0.82300
O2255       O  0.71266834  0.50609132  0.68597663    -0.80600
O2256       O  0.84216743  0.63753741  0.78554040    -0.84800
O2257       O  0.84332824  0.63600272  0.69059190    -0.79700
O2258       O  0.71291408  0.56113845  0.77838816    -0.81500
O2259       O  0.78316441  0.50589461  0.68484152    -0.84200
C2260       C  0.82322907  0.65055799  0.67811087     0.96600
C2261       C  0.82000236  0.64817806  0.80151289     1.04000
O2262       O  0.78066526  0.56797775  0.73649264    -1.13200
O2263       O  0.78381269  0.50303419  0.78011224    -0.75600
O2264       O  0.83957648  0.56193141  0.78551495    -0.79100
O2265       O  0.79101581  0.64027828  0.69425258    -0.79800
C2266       C  0.81720020  0.52590961  0.79681515     0.95500
O2267       O  0.84139268  0.56164767  0.69147714    -0.77700
O2268       O  0.71228270  0.50369555  0.78190823    -0.82900
C2269       C  0.70590365  0.53149955  0.66929751     0.98100
C2270       C  0.70036309  0.52672423  0.79407377     1.04000
O2271       O  0.72032791  0.56683241  0.68463017    -0.78600
C2272       C  0.81801867  0.52812473  0.67333687     1.02300
C2273       C  0.78837302  0.81155770  0.63392561    -0.20900
C2274       C  0.79096915  0.83948528  0.60359380    -0.07500
C2275       C  0.76881909  0.85800166  0.61111114     0.13400
C2276       C  0.74152994  0.84404129  0.64367584    -0.21000
C2277       C  0.73696258  0.81401936  0.67153359    -0.07500
C2278       C  0.76229524  0.79916395  0.66796255     0.13300
C2279       C  0.76279435  0.77085987  0.70029062    -0.24300
H2280       H  0.80571758  0.79805259  0.63108951     0.14600
H2281       H  0.72364742  0.85708490  0.64757328     0.14700
C2282       C  0.77414907  0.89367630  0.58658361    -0.24300
H2283       H  0.78741421  0.76633102  0.69545270     0.04900
H2284       H  0.73571936  0.74098748  0.69755544     0.08100
H2285       H  0.76612788  0.78364644  0.73310995     0.08100
H2286       H  0.77375803  0.88903179  0.05296549     0.08100
H2287       H  0.80211609  0.92051860  0.59634333     0.08100
H2288       H  0.75143915  0.90076127  0.59367338     0.04900
C2289       C  0.77087967  0.79799284  0.91469027    -0.20900
C2290       C  0.77318118  0.82685507  0.94356697    -0.07500
C2291       C  0.75407672  0.84760676  0.93315246     0.13400
C2292       C  0.73333713  0.83900240  0.89420138    -0.21000
C2293       C  0.72969550  0.80886961  0.86589135    -0.07500
C2294       C  0.74946366  0.78848854  0.87614581     0.13300
C2295       C  0.74903202  0.75714031  0.84676237    -0.24300
H2296       H  0.78487238  0.78183959  0.92297278     0.14600
H2297       H  0.71862312  0.85490031  0.88667054     0.14700
C2298       C  0.75501381  0.87852795  0.96311305    -0.24300
H2299       H  0.76891703  0.74740158  0.85845844     0.04900
H2300       H  0.75847504  0.76967776  0.81438016     0.08100
H2301       H  0.71963645  0.72986314  0.84485193     0.08100
H2302       H  0.78536614  0.90066132  0.97251768     0.08100
H2303       H  0.73723882  0.86318391  0.49194093     0.08100
H2304       H  0.74218939  0.89491875  0.94821079     0.04900
C2305       C  0.82597259  0.97900740  0.89930210    -0.20900
C2306       C  0.86433078  0.48992655  0.89896642    -0.07500
C2307       C  0.88540233  0.50624955  0.86097651     0.13400
C2308       C  0.86945897  0.51846578  0.82863628    -0.21000
C2309       C  0.83135602  0.51024214  0.83067029    -0.07500
C2310       C  0.80806416  0.48769353  0.86490162     0.13300
C2311       C  0.76879351  0.98062297  0.87024701    -0.24300
H2312       H  0.80828223  0.96356791  0.92641923     0.14600
H2313       H  0.88632690  0.53292673  0.80054967     0.14700
C2314       C  0.92151426  0.50602811  0.85036338    -0.24300
H2315       H  0.75589553  0.96589470  0.90098065     0.04900
H2316       H  0.75038892  0.95974484  0.84397684     0.08100
H2317       H  0.76383902  0.50296401  0.86656223     0.08100
H2318       H  0.92557394  0.48540167  0.87096449     0.08100
H2319       H  0.94710325  0.53703277  0.85239317     0.08100
H2320       H  0.91902132  0.49427959  0.81714887     0.04900
C2321       C  0.87928793  0.50711093  0.59783898    -0.20900
C2322       C  0.85729320  0.49662361  0.55946785    -0.07500
C2323       C  0.82010473  0.49255496  0.56088788     0.13400
C2324       C  0.80859335  0.50332163  0.59838483    -0.21000
C2325       C  0.83152062  0.51554084  0.63571036    -0.07500
C2326       C  0.86675818  0.51618160  0.63586999     0.13300
C2327       C  0.89068392  0.52520262  0.67636124    -0.24300
H2328       H  0.90672761  0.50874145  0.59840800     0.14600
H2329       H  0.78094575  0.50157964  0.59863282     0.14700
C2330       C  0.79240174  0.97644362  0.52463193    -0.24300
H2331       H  0.91563301  0.52118836  0.67145567     0.04900
H2332       H  0.87269759  0.50433137  0.70180818     0.08100
H2333       H  0.90204766  0.55672290  0.68723433     0.08100
H2334       H  0.79905303  0.96037569  0.50033526     0.08100
H2335       H  0.79098475  0.50278315  0.00763523     0.08100
H2336       H  0.76154727  0.45174479  0.53866574     0.04900
C2337       C  0.51836385  0.59266358  0.62613977    -0.20900
C2338       C  0.54391416  0.59936112  0.59231749    -0.07500
C2339       C  0.58278067  0.63260153  0.59701823     0.13400
C2340       C  0.59329431  0.65908681  0.63192835    -0.21000
C2341       C  0.56743101  0.65317405  0.66415528    -0.07500
C2342       C  0.52962576  0.61915810  0.66180434     0.13300
C2343       C  0.50148910  0.61003515  0.69733728    -0.24300
H2344       H  0.48947410  0.56667733  0.62556794     0.14600
H2345       H  0.62255596  0.68496458  0.63404035     0.14700
C2346       C  0.61461614  0.64305369  0.56580405    -0.24300
H2347       H  0.47413135  0.58097670  0.69166909     0.04900
H2348       H  0.49426930  0.63390806  0.69972793     0.08100
H2349       H  0.51429943  0.60813809  0.72821980     0.08100
H2350       H  0.62245086  0.67095059  0.04981659     0.08100
H2351       H  0.60742567  0.61905581  0.54196147     0.08100
H2352       H  0.64107266  0.64870016  0.58330936     0.04900
C2353       C  0.59486666  0.65122135  0.88459333    -0.20900
C2354       C  0.56736990  0.65423367  0.85971570    -0.07500
C2355       C  0.52785389  0.63140317  0.87098380     0.13400
C2356       C  0.51746599  0.60772058  0.90774241    -0.21000
C2357       C  0.54523666  0.60575542  0.93297614    -0.07500
C2358       C  0.58441432  0.62791423  0.92132225     0.13300
C2359       C  0.61582929  0.62953360  0.94898911    -0.24300
H2360       H  0.62519374  0.66887588  0.87656427     0.14600
H2361       H  0.98686258  0.59219518  0.91717648     0.14700
C2362       C  0.49632670  0.63107366  0.84437521    -0.24300
H2363       H  0.62026034  0.64861368  0.97746952     0.04900
H2364       H  0.64382356  0.64332480  0.93227189     0.08100
H2365       H  0.60774492  0.59893294  0.95893623     0.08100
H2366       H  0.49754027  0.62217029  0.81079473     0.08100
H2367       H  0.49957391  0.66122317  0.84529909     0.08100
H2368       H  0.96678601  0.60996849  0.85583348     0.04900
C2369       C  0.64119876  0.97486287  0.57087984    -0.20900
C2370       C  0.63249449  0.00373336  0.55772844    -0.07500
C2371       C  0.64978392  0.54302912  0.57869719     0.13400
C2372       C  0.67225471  0.54960841  0.61552376    -0.21000
C2373       C  0.68040131  0.52064144  0.63041742    -0.07500
C2374       C  0.66509348  0.98162487  0.60703940     0.13300
C2375       C  0.67577352  0.95071016  0.61705438    -0.24300
H2376       H  0.63023913  0.94744455  0.55186049     0.14600
H2377       H  0.68428343  0.57845980  0.63201002     0.14700
C2378       C  0.64611080  0.57734381  0.56321678    -0.24300
H2379       H  0.66203486  0.92476063  0.59408982     0.04900
H2380       H  0.66605133  0.93881220  0.64945003     0.08100
H2381       H  0.70758378  0.96454160  0.61524875     0.08100
H2382       H  0.63218175  0.58527044  0.58861000     0.08100
H2383       H  0.62895021  0.57030384  0.53306835     0.08100
H2384       H  0.67528933  0.60379179  0.55735819     0.04900
C2385       C  0.61722443  0.96795755  0.87089947    -0.20900
C2386       C  0.62112369  0.99893564  0.89890860    -0.07500
C2387       C  0.65227649  0.53960428  0.89090640     0.13400
C2388       C  0.67696098  0.54635809  0.85681648    -0.21000
C2389       C  0.67211234  0.51533016  0.82927039    -0.07500
C2390       C  0.64340674  0.97552349  0.83756144     0.13300
C2391       C  0.63782214  0.94081222  0.80984198    -0.24300
H2392       H  0.59463716  0.93719548  0.87510747     0.14600
H2393       H  0.70127344  0.57667055  0.85238835     0.14700
C2394       C  0.66294723  0.57632855  0.91831391    -0.24300
H2395       H  0.61165770  0.91196075  0.81858114     0.04900
H2396       H  0.66306670  0.93702212  0.81370138     0.08100
H2397       H  0.63449322  0.94652504  0.77576155     0.08100
H2398       H  0.69196726  0.59005178  0.43140804     0.08100
H2399       H  0.64432121  0.57065635  0.94591575     0.08100
H2400       H  0.66179081  0.59910891  0.89824461     0.04900
C2401       C  0.58722020  0.84882869  0.93313160    -0.20900
C2402       C  0.54990755  0.84360885  0.93060634    -0.07500
C2403       C  0.53225684  0.83634363  0.88898987     0.13400
C2404       C  0.54755552  0.82513427  0.85510623    -0.21000
C2405       C  0.58220900  0.82563071  0.85981789    -0.07500
C2406       C  0.60349964  0.83998774  0.89855592     0.13300
C2407       C  0.64259724  0.84440210  0.90436097    -0.24300
H2408       H  0.60410273  0.85968835  0.96260450     0.10800
H2409       H  0.53285103  0.81679187  0.82410867     0.14700
C2410       C  0.49971233  0.84289611  0.87759699    -0.24300
H2411       H  0.65449115  0.85447467  0.93739996     0.04900
H2412       H  0.66337092  0.86724572  0.88206236     0.08100
H2413       H  0.64034335  0.81508527  0.89793725     0.08100
H2414       H  0.47401663  0.82364456  0.89612668     0.08100
H2415       H  0.99104802  0.83634822  0.84275897     0.08100
H2416       H  0.50914440  0.87499509  0.88266131     0.04900
C2417       C  0.56419674  0.86503655  0.62569457    -0.20900
C2418       C  0.54449466  0.83669914  0.59182110    -0.07500
C2419       C  0.54032343  0.79800109  0.59573157     0.13400
C2420       C  0.55793364  0.79044239  0.63027280    -0.21000
C2421       C  0.57823390  0.81900601  0.66290881    -0.07500
C2422       C  0.58054934  0.85645607  0.66119914     0.13300
C2423       C  0.59809761  0.88641697  0.69795595    -0.24300
H2424       H  0.56607573  0.89370819  0.62585745     0.14600
H2425       H  0.55514765  0.76117461  0.63209683     0.14700
C2426       C  0.01696470  0.76193601  0.56399716    -0.24300
H2427       H  0.59713796  0.91401216  0.69190181     0.04900
H2428       H  0.62875600  0.89556271  0.70327897     0.08100
H2429       H  0.58190949  0.87261290  0.72759454     0.08100
H2430       H  0.53784938  0.75517543  0.54952007     0.08100
H2431       H  0.00180203  0.76756688  0.53804206     0.08100
H2432       H  0.99462518  0.73572712  0.58180984     0.04900
C2433       C  0.80764945  0.67561842  0.86738015    -0.20900
C2434       C  0.83436605  0.67798427  0.83756370    -0.07500
C2435       C  0.87334160  0.70968166  0.84178485     0.13400
C2436       C  0.88484801  0.73635016  0.87705107    -0.21000
C2437       C  0.85900637  0.73192560  0.90949055    -0.07500
C2438       C  0.81901745  0.70199976  0.90294168     0.13300
C2439       C  0.78742312  0.69674135  0.93268071    -0.24300
H2440       H  0.77748882  0.65216941  0.86332846     0.14600
H2441       H  0.91451266  0.76072509  0.87852318     0.14700
C2442       C  0.90303251  0.71649196  0.80879104    -0.24300
H2443       H  0.75824526  0.67350440  0.92029216     0.04900
H2444       H  0.78725236  0.72494561  0.93584139     0.08100
H2445       H  0.79048255  0.68677927  0.96470854     0.08100
H2446       H  0.89287371  0.71946610  0.77662480     0.08100
H2447       H  0.90813689  0.69105824  0.80847595     0.08100
H2448       H  0.93134847  0.74436504  0.81573033     0.04900
C2449       C  0.83331947  0.72599403  0.59376308    -0.20900
C2450       C  0.86393029  0.72940319  0.57017932    -0.07500
C2451       C  0.88120938  0.70728961  0.58206530     0.13400
C2452       C  0.86870689  0.68384685  0.61876524    -0.21000
C2453       C  0.83739664  0.67954550  0.64236401    -0.07500
C2454       C  0.81926492  0.70096559  0.62928243     0.13300
C2455       C  0.78443952  0.69713403  0.65110459    -0.24300
H2456       H  0.81855022  0.74083226  0.58256147     0.14600
H2457       H  0.88227923  0.66706191  0.62759666     0.14700
C2458       C  0.91152531  0.70670959  0.55504858    -0.24300
H2459       H  0.77526143  0.71699421  0.63677516     0.04900
H2460       H  0.79128850  0.70566890  0.68551098     0.08100
H2461       H  0.75948497  0.66581912  0.64754034     0.08100
H2462       H  0.93554329  0.73775858  0.55002201     0.08100
H2463       H  0.89893597  0.69226732  0.52344960     0.08100
H2464       H  0.92339643  0.68956372  0.57026576     0.04900
loop_ 
_geom_bond_atom_site_label_1 
_geom_bond_atom_site_label_2 
_geom_bond_distance 
_geom_bond_site_symmetry_2 
_ccdc_geom_bond_type 
C1            C2   1.536       .  S
C1            C7   1.527       .  S
C1            C5   1.543       .  S
C1          C281   1.539       .  S
C2            H9   1.080       .  S
C2          C311   1.365       .  D
C3            C4   1.546   1_556  S
C3          C310   1.368       .  D
C3          C371   1.499   1_556  S
C4            C8   1.539       .  S
C4            C6   1.551   1_554  S
C4           H10   1.111       .  S
C5           H11   1.075       .  S
C5          C314   1.364       .  D
C6          C313   1.364       .  D
C6          C326   1.492   1_556  S
C7          H320   1.086       .  S
C7          C316   1.355       .  D
C8          C315   1.356   1_554  D
C8          C294   1.471       .  S
H12         C315   1.086       .  S
C13          C14   1.546       .  S
C13         C327   1.543       .  S
C13        C1249   1.532   1_455  S
C13         C262   1.552       .  S
C14          H21   1.079       .  S
C14         C323   1.368       .  D
C15          C16   1.538       .  S
C15         C322   1.372       .  D
C15         C335   1.489       .  S
C16          C20   1.546       .  S
C16        C1250   1.555   1_455  S
C16        H1254   1.099   1_455  S
C17        C1245   1.530       .  S
C17          H23   1.084       .  S
C17         C326   1.362       .  D
C18        C1248   1.556       .  S
C18         C325   1.362       .  D
C18         C314   1.494       .  S
C19         C321   1.542       .  S
C19          H24   1.084       .  S
C19          C20   1.373       .  D
C20         C246   1.524       .  S
H22        C1248   1.100       .  S
C25          C26   1.547       .  S
C25          C31   1.535       .  S
C25          C29   1.548       .  S
C25         C230   1.555       .  S
C26          H33   1.075       .  S
C26         C335   1.373       .  D
C27          C28   1.537   1_556  S
C27         C334   1.371       .  D
C27         C323   1.485   1_556  S
C28          C32   1.532       .  S
C28          C30   1.544   1_554  S
C28          H34   1.111       .  S
C29         H651   1.086       .  S
C29         C338   1.373       .  D
C30         C337   1.373       .  D
C30         C966   1.495   1_556  S
C31         H960   1.087       .  S
C31         C340   1.353       .  D
C32         C339   1.351   1_554  D
C32         C214   1.472       .  S
H35         C645   1.086       .  S
H36         C955   1.087       .  S
C37          C43   1.539       .  S
C37          C41   1.540       .  S
C37        C1270   1.544   1_455  S
C37         C182   1.544       .  S
C38        C1269   1.543       .  S
C38          H45   1.077       .  S
C38         C347   1.367       .  D
C39        C1272   1.553       .  S
C39         C346   1.366       .  D
C39         C975   1.487       .  S
C40          C44   1.535       .  S
C40          C42   1.548       .  S
C40        C1271   1.553   1_455  S
C40        H1894   1.111       .  S
C41          H47   1.084       .  S
C41         C350   1.368       .  D
C42         C349   1.366       .  D
C42         C954   1.496       .  S
C43         H356   1.086       .  S
C43         C352   1.356   1_554  D
C44         C351   1.355       .  D
C44         C201   1.478       .  S
H46        C1888   1.111       .  S
H48         C351   1.087       .  S
C49          C55   1.548       .  S
C49          C53   1.534       .  S
C49         C666   1.535       .  S
C49         C766   1.540       .  S
C50         C665   1.535   1_545  S
C50          H57   1.075       .  S
C50         C975   1.364       .  D
C51          C52   1.554   1_556  S
C51         C974   1.366       .  D
C51         C963   1.492   1_556  S
C52          C56   1.547       .  S
C52          C54   1.539   1_554  S
C52          H58   1.108       .  S
C53          H59   1.086       .  S
C53         C362   1.365       .  D
C54         C361   1.365       .  D
C54         C374   1.484   1_556  S
C55         H984   1.085       .  S
C55         C364   1.365       .  D
C56         C363   1.363   1_554  D
C56         C782   1.513       .  S
H60         C979   1.085       .  S
C61          C62   1.553       .  S
C61          C67   1.544       .  S
C61          C65   1.536       .  S
C61         C118   1.553       .  S
C62          H69   1.078       .  S
C62         C371   1.372       .  D
C63          C64   1.547       .  S
C63         C370   1.371       .  D
C63         C311   1.497       .  S
C64          C68   1.534       .  S
C64          C66   1.541       .  S
C64          H70   1.111       .  S
C65          H71   1.081       .  S
C65         C374   1.367       .  D
C66         C373   1.366       .  D
C66         C362   1.480       .  S
C67         H380   1.087       .  S
C67         C376   1.359   1_554  D
C68         C375   1.360       .  D
C68         C134   1.492       .  S
H72         C375   1.086       .  S
Fe73         O89   2.039       .  S
Fe73         O79   2.071       .  S
Fe73         O86   2.062       .  S
Fe73         O78   2.041       .  S
Fe73         O84   1.969       .  S
Fe74         O77   2.044       .  S
Fe74         O81   2.086       .  S
Fe74         O85   2.050       .  S
Fe74         O90   2.073       .  S
Fe74         O84   1.979       .  S
Fe75         O93   2.105       .  S
Fe75         O80   2.061       .  S
Fe75         O87   2.074       .  S
Fe75         O76   2.098       .  S
Fe75         O84   1.979       .  S
O76          C83   1.277       .  A
O77          C91   1.267       .  A
O78          C83   1.264       .  A
O79          C82   1.267       .  A
O80          C92   1.267       .  A
O81          C94   1.272       .  A
C82          O87   1.272       .  A
C82         C121   1.501       .  S
C83         C137   1.490       .  S
O85          C88   1.264       .  A
O86          C88   1.268       .  A
C88         C198   1.482       .  S
O89          C94   1.267       .  A
O90          C92   1.270       .  A
C91          O93   1.277       .  A
C91         C265   1.490       .  S
C92         C249   1.480       .  S
C94         C185   1.481       .  S
Fe95        O111   2.063       .  S
Fe95        O101   2.060       .  S
Fe95        O108   2.056       .  S
Fe95        O100   2.071       .  S
Fe95        O106   1.982       .  S
Fe96         O99   2.069       .  S
Fe96        O103   2.075       .  S
Fe96        O107   2.070       .  S
Fe96        O112   2.094       .  S
Fe96        O106   1.982       .  S
Fe97        O115   2.041       .  S
Fe97        O102   2.047       .  S
Fe97        O109   2.043       .  S
Fe97         O98   2.050       .  S
Fe97        O106   1.973       .  S
O98         C105   1.267       .  A
O99         C113   1.267       .  A
O100        C105   1.270       .  A
O101        C104   1.268       .  A
O102        C114   1.266       .  A
O103        C116   1.271       .  A
C104        O109   1.261       .  A
C104        C297   1.488       .  S
C105        C278   1.483       .  S
O107        C110   1.271       .  A
O108        C110   1.269       .  A
C110        C153   1.478       .  S
O111        C116   1.267       .  A
O112        C114   1.273       .  A
C113        O115   1.266       .  A
C113        C217   1.492       .  S
C114        C233   1.493       .  S
C116        C169   1.481       .  S
C117        C118   1.412       .  A
C117        C122   1.412       .  A
C117        H124   1.077       .  S
C118        C119   1.431       .  A
C119        C126   1.508       .  S
C119        C120   1.405       .  A
C120        C121   1.400       .  A
C120        H125   1.084       .  S
C121        C122   1.420       .  A
C122        C123   1.508       .  S
C123        H127   1.109       .  S
C123        H128   1.110       .  S
C123        H129   1.110       .  S
C126        H131   1.106       .  S
C126        H132   1.111       .  S
C126        H438   1.102       .  S
H130        C434   1.099       .  S
C133        C134   1.396       .  A
C133        C138   1.404       .  A
C133        H140   1.075       .  S
C134        C135   1.415       .  A
C135        C142   1.499       .  S
C135        C136   1.405       .  A
C136        C137   1.403       .  A
C136        H141   1.082       .  S
C137        C138   1.423       .  A
C138        C139   1.510       .  S
C139        H143   1.111       .  S
C139        H144   1.110       .  S
C139        H145   1.109       .  S
C142        H146   1.107       .  S
C142        H148   1.111       .  S
C142        H455   1.107       .  S
H147        C450   1.107       .  S
C149        C766   1.412       .  A
C149        C770   1.400       .  A
C149        H156   1.082       .  S
C150        C665   1.538       .  S
C150        C151   1.419   1_565  A
C150        C765   1.413       .  A
C151        C158   1.506       .  S
C151        C152   1.405       .  A
C152        C153   1.405       .  A
C152        H157   1.085       .  S
C153        C154   1.410   1_545  A
C154        C771   1.509       .  S
C154        C765   1.400       .  A
C155        C770   1.509       .  S
C155        H159   1.111       .  S
C155        H160   1.110       .  S
C155        H777   1.111       .  S
C158        H162   1.108   1_545  S
C158        H163   1.109       .  S
C158        H164   1.111   1_545  S
H161        C771   1.110   1_545  S
C165        C166   1.408   1_545  A
C165        C170   1.408       .  A
C165        H172   1.079       .  S
C166        C672   1.509       .  S
C166        C167   1.430       .  A
C167        C790   1.507       .  S
C167        C168   1.402   1_565  A
C168        C169   1.396       .  A
C168        H173   1.085       .  S
C169        C170   1.412       .  A
C170        C171   1.506       .  S
C171        H175   1.110       .  S
C171        H176   1.111       .  S
C171        H177   1.109       .  S
C174        C783   1.507       .  S
C174        H178   1.098       .  S
C174       H1103   1.110       .  S
C174        H796   1.111       .  S
H179       C1098   1.110   1_545  S
H180        C790   1.111       .  S
C181        C182   1.416       .  A
C181        C186   1.411       .  A
C181        H188   1.078   1_455  S
C182        C183   1.430       .  A
C183        C190   1.506       .  S
C183        C184   1.394       .  A
C184        C185   1.395       .  A
C184        H189   1.086       .  S
C185        C186   1.412       .  A
C186        C187   1.507       .  S
C187        H191   1.108   1_455  S
C187        H192   1.109   1_455  S
C187        H193   1.111       .  S
C190        H195   1.099       .  S
C190        H196   1.110       .  S
C190        H502   1.110       .  S
H194        C498   1.110       .  S
C197        C198   1.403       .  A
C197        C202   1.396       .  A
C197        H204   1.084       .  S
C198        C199   1.420       .  A
C199        C206   1.508   1_455  S
C199        C200   1.406       .  A
C200        C201   1.400       .  A
C200       H1437   1.079   1_455  S
C201        C202   1.410       .  A
C202        C203   1.501       .  S
C203        H207   1.104       .  S
C203        H208   1.110       .  S
C203        H209   1.105       .  S
H205       C1432   1.080       .  S
C206        H210   1.111       .  S
C206        H211   1.109       .  S
C206       H1444   1.111       .  S
H212       C1438   1.111       .  S
C213        C214   1.399       .  A
C213        C218   1.406       .  A
C213        H220   1.084       .  S
C214        C831   1.404       .  A
C215        C222   1.501       .  S
C215        C216   1.394       .  A
C215        C830   1.404       .  A
C216        C217   1.409       .  A
C216        H221   1.084       .  S
C217        C834   1.423   1_545  A
C218        C219   1.506       .  S
C218        C833   1.423       .  A
C219        H223   1.111       .  S
C219        H224   1.105       .  S
C219        H225   1.110       .  S
C222        H226   1.107       .  S
C222        H227   1.107       .  S
C222        H228   1.111       .  S
C229        C230   1.419       .  A
C229        C234   1.416       .  A
C229        H236   1.076       .  S
C230        C847   1.430       .  A
C231        C238   1.511       .  S
C231        C232   1.399       .  A
C231        C846   1.429   1_545  A
C232        C233   1.400       .  A
C232        H237   1.085       .  S
C233        C850   1.413   1_545  A
C234        C235   1.507       .  S
C234        C849   1.415       .  A
C235        H239   1.111       .  S
C235        H240   1.110       .  S
C235        H241   1.110       .  S
C238        H243   1.098       .  S
C238        H244   1.110       .  S
C238        H550   1.111       .  S
H242        C546   1.111       .  S
C245        C246   1.416       .  A
C245        C250   1.402       .  A
C245        H252   1.081       .  S
C246        C247   1.430       .  A
C247        C254   1.505       .  S
C247        C248   1.408       .  A
C248        C249   1.398       .  A
C248        H253   1.085       .  S
C249        C250   1.409       .  A
C250        C251   1.508       .  S
C251        H255   1.111       .  S
C251        H256   1.110       .  S
C251        H257   1.111       .  S
C254        H258   1.091   1_455  S
C254        H260   1.108       .  S
C254       H1491   1.111   1_455  S
H259       C1486   1.111       .  S
C261        C262   1.419       .  A
C261        C266   1.414       .  A
C261        H268   1.077       .  S
C262        C263   1.430       .  A
C263       C1502   1.510       .  S
C263        C264   1.400       .  A
C264        C265   1.399       .  A
C264        H269   1.086       .  S
C265        C266   1.411       .  A
C266        C267   1.508       .  S
C267        H271   1.111       .  S
C267        H272   1.108       .  S
C267        H273   1.110       .  S
C270       C1495   1.511       .  S
C270        H275   1.101       .  S
C270        H276   1.110       .  S
C270       H1506   1.111       .  S
H274       C1502   1.111       .  S
C277        C278   1.401       .  A
C277        C282   1.402       .  A
C277        H284   1.085       .  S
C278        C279   1.413       .  A
C279        C286   1.510       .  S
C279        C280   1.403       .  A
C280        C281   1.411       .  A
C280        H285   1.076       .  S
C281        C282   1.431       .  A
C282        C283   1.516       .  S
C283        H287   1.111       .  S
C283        H288   1.102       .  S
C283        H289   1.105       .  S
C286        H290   1.111       .  S
C286        H291   1.109       .  S
C286        H292   1.111       .  S
C293        C294   1.395       .  A
C293        C298   1.401       .  A
C293        H300   1.082       .  S
C294        C295   1.409       .  A
C295        C302   1.505       .  S
C295        C296   1.398       .  A
C296        C297   1.407       .  A
C296        H301   1.084       .  S
C297        C298   1.425       .  A
C298        C299   1.509       .  S
C299        H303   1.111       .  S
C299        H304   1.110       .  S
C299        H305   1.110       .  S
C302        H306   1.101       .  S
C302        H307   1.109       .  S
C302        H308   1.110       .  S
C309        C310   1.540       .  S
C309        C315   1.529       .  S
C309        C313   1.543       .  S
C309        C589   1.544       .  S
C310        H317   1.079       .  S
C311        C312   1.549       .  S
C312        C316   1.540       .  S
C312        C314   1.553       .  S
C312        H318   1.111       .  S
C313        H319   1.075       .  S
C316        C602   1.472       .  S
C321        C322   1.549       .  S
C321       C1557   1.532   1_455  S
C321        C570   1.552       .  S
C322        H329   1.080       .  S
C323        C324   1.539   1_554  S
C324        C328   1.545       .  S
C324       C1558   1.556   1_456  S
C324       H1562   1.099   1_455  S
C325       C1553   1.532       .  S
C325        H331   1.085       .  S
C326       C1556   1.556   1_554  S
C327        H332   1.084       .  S
C327        C328   1.375   1_554  D
C328        C554   1.524       .  S
H330       C1556   1.100       .  S
C333        C334   1.547       .  S
C333        C339   1.536       .  S
C333        C337   1.548       .  S
C333        C538   1.548       .  S
C334        H341   1.077       .  S
C335        C336   1.537       .  S
C336        C340   1.532       .  S
C336        C338   1.546       .  S
C336        H342   1.111       .  S
C337        H959   1.086       .  S
C338        C658   1.497       .  S
C339        H652   1.087       .  S
C340        C522   1.472       .  S
H343        C953   1.086       .  S
H344        C647   1.087       .  S
C345       C1578   1.544   1_455  S
C345        C351   1.539       .  S
C345        C349   1.537       .  S
C345        C490   1.542       .  S
C346       C1577   1.542       .  S
C346        H353   1.077       .  S
C347       C1580   1.554   1_554  S
C347        C667   1.489   1_554  S
C348       C1579   1.553   1_456  S
C348        C352   1.534       .  S
C348        C350   1.546   1_556  S
C348       H2202   1.111       .  S
C349        H355   1.082       .  S
C350        C646   1.496   1_554  S
C352        C509   1.478       .  S
H354       C2196   1.111       .  S
C357        C974   1.537       .  S
C357        C363   1.547       .  S
C357        C361   1.534       .  S
C357       C1074   1.541       .  S
C358        C973   1.535   1_545  S
C358        H365   1.075       .  S
C358        C667   1.365       .  D
C359        C360   1.551       .  S
C359        C666   1.364       .  D
C359        C655   1.489       .  S
C360        C364   1.545       .  S
C360        C362   1.538       .  S
C360        H366   1.109       .  S
C361        H367   1.086       .  S
C363        H676   1.085       .  S
C364       C1090   1.509       .  S
H368        C671   1.085       .  S
C369        C370   1.551       .  S
C369        C375   1.546       .  S
C369        C373   1.534       .  S
C369        C426   1.551       .  S
C370        H377   1.076       .  S
C371        C372   1.546   1_554  S
C372        C376   1.533       .  S
C372        C374   1.543   1_556  S
C372        H378   1.111       .  S
C373        H379   1.082       .  S
C376        C442   1.488       .  S
Fe381       O397   2.041       .  S
Fe381       O387   2.071       .  S
Fe381       O394   2.063       .  S
Fe381       O386   2.043       .  S
Fe381       O392   1.969       .  S
Fe382       O385   2.047       .  S
Fe382       O389   2.079       .  S
Fe382       O393   2.050       .  S
Fe382       O398   2.071       .  S
Fe382       O392   1.976       .  S
Fe383       O401   2.103       .  S
Fe383       O388   2.056       .  S
Fe383       O395   2.066       .  S
Fe383       O384   2.097       .  S
Fe383       O392   1.976       .  S
O384        C391   1.276       .  A
O385        C399   1.268       .  A
O386        C391   1.265       .  A
O387        C390   1.267       .  A
O388        C400   1.266       .  A
O389        C402   1.270       .  A
C390        O395   1.270       .  A
C390        C429   1.495       .  S
C391        C445   1.491       .  S
O393        C396   1.265       .  A
O394        C396   1.269       .  A
C396        C506   1.480       .  S
O397        C402   1.267       .  A
O398        C400   1.269       .  A
C399        O401   1.277       .  A
C399        C573   1.491       .  S
C400        C557   1.478       .  S
C402        C493   1.479       .  S
Fe403       O419   2.061       .  S
Fe403       O409   2.064       .  S
Fe403       O416   2.059       .  S
Fe403       O408   2.073       .  S
Fe403       O414   1.985       .  S
Fe404       O407   2.069       .  S
Fe404       O411   2.079       .  S
Fe404       O415   2.067       .  S
Fe404       O420   2.098       .  S
Fe404       O414   1.985       .  S
Fe405       O423   2.047       .  S
Fe405       O410   2.043       .  S
Fe405       O417   2.040       .  S
Fe405       O406   2.059       .  S
Fe405       O414   1.973       .  S
O406        C413   1.268       .  A
O407        C421   1.267       .  A
O408        C413   1.270       .  A
O409        C412   1.269       .  A
O410        C422   1.266       .  A
O411        C424   1.271       .  A
C412        O417   1.261       .  A
C412        C605   1.485       .  S
C413        C586   1.485       .  S
O415        C418   1.270       .  A
O416        C418   1.268       .  A
C418        C461   1.478       .  S
O419        C424   1.267       .  A
O420        C422   1.274       .  A
C421        O423   1.267       .  A
C421        C525   1.494       .  S
C422        C541   1.495       .  S
C424        C477   1.479       .  S
C425        C426   1.412       .  A
C425        C430   1.411       .  A
C425        H432   1.076       .  S
C426        C427   1.430       .  A
C427        C434   1.508       .  S
C427        C428   1.402       .  A
C428        C429   1.399       .  A
C428        H433   1.084       .  S
C429        C430   1.419       .  A
C430        C431   1.508       .  S
C431        H435   1.110       .  S
C431        H436   1.109       .  S
C431        H437   1.111       .  S
C434        H439   1.106       .  S
C434        H440   1.111       .  S
C441        C442   1.395       .  A
C441        C446   1.403       .  A
C441        H448   1.076       .  S
C442        C443   1.413       .  A
C443        C450   1.500       .  S
C443        C444   1.405       .  A
C444        C445   1.405       .  A
C444        H449   1.083       .  S
C445        C446   1.423       .  A
C446        C447   1.510       .  S
C447        H451   1.111       .  S
C447        H452   1.110       .  S
C447        H453   1.109       .  S
C450        H454   1.106       .  S
C450        H456   1.111       .  S
C457       C1074   1.413       .  A
C457       C1078   1.400       .  A
C457        H464   1.080       .  S
C458        C973   1.538       .  S
C458       C1073   1.412       .  A
C458        C459   1.419   1_565  A
C459        C466   1.506       .  S
C459        C460   1.406       .  A
C460        C461   1.406       .  A
C460        H465   1.085       .  S
C461        C462   1.410   1_545  A
C462       C1079   1.510       .  S
C462       C1073   1.399       .  A
C463       C1078   1.509       .  S
C463        H467   1.111       .  S
C463        H468   1.110       .  S
C463       H1085   1.111       .  S
C466        H470   1.108   1_545  S
C466        H471   1.110       .  S
C466        H472   1.111   1_545  S
H469       C1079   1.111   1_545  S
C473        C474   1.408   1_545  A
C473        C478   1.408       .  A
C473        H480   1.078       .  S
C474        C980   1.509       .  S
C474        C475   1.430       .  A
C475       C1098   1.507       .  S
C475        C476   1.403   1_565  A
C476        C477   1.396       .  A
C476        H481   1.085       .  S
C477        C478   1.411       .  A
C478        C479   1.506       .  S
C479        H483   1.110       .  S
C479        H484   1.111       .  S
C479        H485   1.109       .  S
C482       C1091   1.507       .  S
C482        H486   1.099       .  S
C482        H795   1.110       .  S
C482       H1104   1.111       .  S
H487        C790   1.110   1_545  S
H488       C1098   1.111       .  S
C489        C490   1.414       .  A
C489        C494   1.410       .  A
C489        H496   1.078   1_455  S
C490        C491   1.430       .  A
C491        C498   1.507       .  S
C491        C492   1.394       .  A
C492        C493   1.394       .  A
C492        H497   1.086       .  S
C493        C494   1.412       .  A
C494        C495   1.507       .  S
C495        H499   1.108   1_455  S
C495        H500   1.109   1_455  S
C495        H501   1.111       .  S
C498        H503   1.099       .  S
C498        H504   1.110       .  S
C505        C506   1.403       .  A
C505        C510   1.396       .  A
C505        H512   1.084       .  S
C506        C507   1.418       .  A
C507        C514   1.508   1_455  S
C507        C508   1.404       .  A
C508        C509   1.400       .  A
C508       H1745   1.079   1_455  S
C509        C510   1.411       .  A
C510        C511   1.502       .  S
C511        H515   1.104       .  S
C511        H516   1.110       .  S
C511        H517   1.107       .  S
H513       C1740   1.079       .  S
C514        H518   1.111       .  S
C514        H519   1.109       .  S
C514       H1752   1.111       .  S
H520       C1746   1.111       .  S
C521        C522   1.401       .  A
C521        C526   1.406       .  A
C521        H528   1.084       .  S
C522       C1139   1.404       .  A
C523        C530   1.500       .  S
C523       C1138   1.403       .  A
C523        C524   1.394       .  A
C524        C525   1.408       .  A
C524        H529   1.084       .  S
C525       C1142   1.423   1_545  A
C526        C527   1.506       .  S
C526       C1141   1.423       .  A
C527        H531   1.111       .  S
C527        H532   1.105       .  S
C527        H533   1.110       .  S
C530        H534   1.107       .  S
C530        H535   1.107       .  S
C530        H536   1.110       .  S
C537        C538   1.418       .  A
C537        C542   1.412       .  A
C537        H544   1.076       .  S
C538       C1155   1.430       .  A
C539        C546   1.511       .  S
C539       C1154   1.430       .  A
C539        C540   1.400       .  A
C540        C541   1.401       .  A
C540        H545   1.085       .  S
C541       C1158   1.413   1_545  A
C542        C543   1.507       .  S
C542       C1157   1.411       .  A
C543        H547   1.111       .  S
C543        H548   1.110       .  S
C543        H549   1.110       .  S
C546        H551   1.098       .  S
C546        H552   1.110       .  S
C553        C554   1.416       .  A
C553        C558   1.400       .  A
C553        H560   1.081       .  S
C554        C555   1.431       .  A
C555        C562   1.505       .  S
C555        C556   1.409       .  A
C556        C557   1.398       .  A
C556        H561   1.085       .  S
C557        C558   1.408       .  A
C558        C559   1.509       .  S
C559        H563   1.111       .  S
C559        H564   1.110       .  S
C559        H565   1.111       .  S
C562        H566   1.090   1_455  S
C562       H1799   1.111   1_455  S
C562        H568   1.108       .  S
H567       C1794   1.111       .  S
C569        C570   1.418       .  A
C569        C574   1.414       .  A
C569        H576   1.078       .  S
C570        C571   1.431       .  A
C571       C1810   1.512       .  S
C571        C572   1.401       .  A
C572        C573   1.399       .  A
C572        H577   1.086       .  S
C573        C574   1.412       .  A
C574        C575   1.508       .  S
C575        H579   1.111       .  S
C575        H580   1.109       .  S
C575        H581   1.110       .  S
C578       C1803   1.511       .  S
C578       H1814   1.111       .  S
C578        H583   1.100       .  S
C578        H584   1.110       .  S
H582       C1810   1.111       .  S
C585        C586   1.401       .  A
C585        C590   1.405       .  A
C585        H592   1.085       .  S
C586        C587   1.412       .  A
C587        C594   1.509       .  S
C587        C588   1.404       .  A
C588        C589   1.412       .  A
C588        H593   1.077       .  S
C589        C590   1.431       .  A
C590        C591   1.515       .  S
C591        H595   1.111       .  S
C591        H596   1.104       .  S
C591        H597   1.104       .  S
C594        H598   1.110       .  S
C594        H599   1.109       .  S
C594        H600   1.111       .  S
C601        C602   1.395       .  A
C601        C606   1.400       .  A
C601        H608   1.080       .  S
C602        C603   1.410       .  A
C603        C610   1.505       .  S
C603        C604   1.399       .  A
C604        C605   1.406       .  A
C604        H609   1.084       .  S
C605        C606   1.424       .  A
C606        C607   1.509       .  S
C607        H611   1.111       .  S
C607        H612   1.110       .  S
C607        H613   1.110       .  S
C610        H614   1.103       .  S
C610        H615   1.108       .  S
C610        H616   1.110       .  S
C617        C618   1.539       .  S
C617        C623   1.527       .  S
C617        C621   1.542       .  S
C617        C897   1.541       .  S
C618        H625   1.080       .  S
C618        C927   1.366       .  D
C619        C620   1.547   1_556  S
C619        C926   1.367       .  D
C619        C987   1.497   1_556  S
C620        C624   1.539       .  S
C620        C622   1.550   1_554  S
C620        H626   1.111       .  S
C621        H627   1.076       .  S
C621        C930   1.362       .  D
C622        C929   1.363       .  D
C622        C942   1.489   1_556  S
C623        H936   1.086       .  S
C623        C932   1.356       .  D
C624        C931   1.356   1_554  D
C624        C910   1.471       .  S
H628        C931   1.086       .  S
C629        C630   1.545       .  S
C629        C943   1.542       .  S
C629       C1865   1.530   1_455  S
C629        C878   1.549       .  S
C630        H637   1.079       .  S
C630        C939   1.369       .  D
C631        C632   1.536       .  S
C631        C938   1.369       .  D
C631        C951   1.482       .  S
C632        C636   1.545       .  S
C632       C1866   1.555   1_455  S
C632       H1870   1.101   1_455  S
C633       C1861   1.531       .  S
C633        H639   1.085       .  S
C633        C942   1.362       .  D
C634       C1864   1.555       .  S
C634        C941   1.361       .  D
C634        C930   1.491       .  S
C635        C937   1.543       .  S
C635        H640   1.085       .  S
C635        C636   1.374       .  D
C636        C862   1.522       .  S
H638       C1864   1.100       .  S
C641        C642   1.546       .  S
C641        C647   1.536   1_565  S
C641        C645   1.548   1_565  S
C641        C846   1.549       .  S
C642        H649   1.075       .  S
C642        C951   1.373       .  D
C643        C644   1.537   1_556  S
C643        C950   1.372       .  D
C643        C939   1.485   1_556  S
C644        C648   1.532       .  S
C644        C646   1.542   1_564  S
C644        H650   1.111       .  S
C645        C954   1.372       .  D
C646        C953   1.374       .  D
C647        C956   1.351   1_545  D
C648        C955   1.351   1_564  D
C648        C830   1.471   1_565  S
C653       C1886   1.543   1_455  S
C653        C659   1.539       .  S
C653        C657   1.538       .  S
C653        C798   1.542       .  S
C654       C1885   1.544       .  S
C654        H661   1.078       .  S
C654        C963   1.367       .  D
C655       C1888   1.552       .  S
C655        C962   1.367       .  D
C656       C1887   1.552   1_455  S
C656        C660   1.535       .  S
C656        C658   1.546       .  S
C656       H1278   1.111       .  S
C657        H663   1.083       .  S
C657        C966   1.367       .  D
C658        C965   1.367       .  D
C659        H972   1.086       .  S
C659        C968   1.355   1_554  D
C660        C967   1.354       .  D
C660        C817   1.478       .  S
H662       C1272   1.111       .  S
H664        C967   1.087       .  S
C665        C671   1.546   1_565  S
C665        C669   1.534       .  S
C666        H673   1.075       .  S
C667        C668   1.552   1_546  S
C668        C672   1.545       .  S
C668        C670   1.538   1_554  S
C668        H674   1.109       .  S
C669        H675   1.086       .  S
C669        C978   1.364       .  D
C670        C977   1.364       .  D
C670        C990   1.480   1_556  S
C671        C980   1.364   1_545  D
C672        C979   1.363   1_564  D
C677        C678   1.551       .  S
C677        C683   1.546       .  S
C677        C681   1.534       .  S
C677        C734   1.551       .  S
C678        H685   1.075       .  S
C678        C987   1.371       .  D
C679        C680   1.547       .  S
C679        C986   1.371       .  D
C679        C927   1.499       .  S
C680        C684   1.534       .  S
C680        C682   1.542       .  S
C680        H686   1.111       .  S
C681        H687   1.082       .  S
C681        C990   1.366       .  D
C682        C989   1.366       .  D
C682        C978   1.480       .  S
C683        H996   1.087       .  S
C683        C992   1.360   1_554  D
C684        C991   1.359       .  D
C684        C750   1.489       .  S
H688        C991   1.086       .  S
Fe689       O705   2.037       .  S
Fe689       O695   2.072       .  S
Fe689       O702   2.064       .  S
Fe689       O694   2.038       .  S
Fe689       O700   1.973       .  S
Fe690       O693   2.041       .  S
Fe690       O697   2.079       .  S
Fe690       O701   2.048       .  S
Fe690       O706   2.071       .  S
Fe690       O700   1.981       .  S
Fe691       O709   2.101       .  S
Fe691       O696   2.061       .  S
Fe691       O703   2.070       .  S
Fe691       O692   2.095       .  S
Fe691       O700   1.980       .  S
O692        C699   1.276       .  A
O693        C707   1.267       .  A
O694        C699   1.263       .  A
O695        C698   1.268       .  A
O696        C708   1.267       .  A
O697        C710   1.270       .  A
C698        O703   1.271       .  A
C698        C737   1.497       .  S
C699        C753   1.489       .  S
O701        C704   1.264       .  A
O702        C704   1.270       .  A
C704        C814   1.483       .  S
O705        C710   1.266       .  A
O706        C708   1.270       .  A
C707        O709   1.276       .  A
C707        C881   1.486       .  S
C708        C865   1.482       .  S
C710        C801   1.477       .  S
Fe711       O727   2.061       .  S
Fe711       O717   2.061       .  S
Fe711       O724   2.059       .  S
Fe711       O716   2.070       .  S
Fe711       O722   1.985       .  S
Fe712       O715   2.069       .  S
Fe712       O719   2.088       .  S
Fe712       O723   2.071       .  S
Fe712       O728   2.108       .  S
Fe712       O722   1.983       .  S
Fe713       O731   2.048       .  S
Fe713       O718   2.049       .  S
Fe713       O725   2.044       .  S
Fe713       O714   2.056       .  S
Fe713       O722   1.974       .  S
O714        C721   1.268       .  A
O715        C729   1.267       .  A
O716        C721   1.270       .  A
O717        C720   1.268       .  A
O718        C730   1.266       .  A
O719        C732   1.273       .  A
C720        O725   1.262       .  A
C720        C913   1.488       .  S
C721        C894   1.484       .  S
O723        C726   1.271       .  A
O724        C726   1.268       .  A
C726        C769   1.482       .  S
O727        C732   1.267       .  A
O728        C730   1.276       .  A
C729        O731   1.267       .  A
C729        C833   1.494       .  S
C730        C849   1.501       .  S
C732        C785   1.484       .  S
C733        C734   1.412       .  A
C733        C738   1.411       .  A
C733        H740   1.076       .  S
C734        C735   1.430       .  A
C735        C742   1.508       .  S
C735        C736   1.403       .  A
C736        C737   1.399       .  A
C736        H741   1.084       .  S
C737        C738   1.418       .  A
C738        C739   1.508       .  S
C739        H743   1.109       .  S
C739        H744   1.109       .  S
C739        H745   1.110       .  S
C742       H1054   1.100       .  S
C742        H747   1.106       .  S
C742        H748   1.111       .  S
H746       C1050   1.099       .  S
C749        C750   1.395       .  A
C749        C754   1.403       .  A
C749        H756   1.076       .  S
C750        C751   1.415       .  A
C751        C758   1.499       .  S
C751        C752   1.404       .  A
C752        C753   1.403       .  A
C752        H757   1.083       .  S
C753        C754   1.424       .  A
C754        C755   1.510       .  S
C755        H759   1.111       .  S
C755        H760   1.110       .  S
C755        H761   1.109       .  S
C758        H762   1.106       .  S
C758       H1071   1.107       .  S
C758        H764   1.111       .  S
H763       C1066   1.107       .  S
C765        H772   1.081       .  S
C766        C767   1.421       .  A
C767        C774   1.506       .  S
C767        C768   1.407       .  A
C768        C769   1.406       .  A
C768        H773   1.085       .  S
C769        C770   1.411       .  A
C771        H775   1.111       .  S
C771        H776   1.110       .  S
C774        H778   1.108       .  S
C774        H779   1.110       .  S
C774        H780   1.111       .  S
C781        C782   1.408       .  A
C781        C786   1.409       .  A
C781        H788   1.079       .  S
C782        C783   1.432       .  A
C783        C784   1.405       .  A
C784        C785   1.397       .  A
C784        H789   1.085       .  S
C785        C786   1.412       .  A
C786        C787   1.506       .  S
C787        H791   1.110       .  S
C787        H792   1.111       .  S
C787        H793   1.109       .  S
C790        H794   1.099       .  S
C797        C798   1.415       .  A
C797        C802   1.410       .  A
C797        H804   1.077   1_455  S
C798        C799   1.430       .  A
C799        C806   1.506       .  S
C799        C800   1.393       .  A
C800        C801   1.394       .  A
C800        H805   1.086       .  S
C801        C802   1.410       .  A
C802        C803   1.507       .  S
C803        H807   1.107   1_455  S
C803        H808   1.109   1_455  S
C803        H809   1.111       .  S
C806       H1118   1.110       .  S
C806        H811   1.099       .  S
C806        H812   1.110       .  S
H810       C1114   1.110       .  S
C813        C814   1.403       .  A
C813        C818   1.396       .  A
C813        H820   1.084       .  S
C814        C815   1.421       .  A
C815        C822   1.508   1_455  S
C815        C816   1.405       .  A
C816        C817   1.399       .  A
C816       H2053   1.080   1_455  S
C817        C818   1.411       .  A
C818        C819   1.501       .  S
C819        H823   1.103       .  S
C819        H824   1.110       .  S
C819        H825   1.106       .  S
H821       C2048   1.080       .  S
C822        H826   1.110       .  S
C822        H827   1.109       .  S
C822       H2060   1.111       .  S
H828       C2054   1.111       .  S
C829        C830   1.400   1_565  A
C829        C834   1.405       .  A
C829        H836   1.084       .  S
C831        C838   1.499       .  S
C831        C832   1.395       .  A
C832        C833   1.408       .  A
C832        H837   1.084       .  S
C834        C835   1.506       .  S
C835        H839   1.111       .  S
C835        H840   1.105       .  S
C835        H841   1.110       .  S
C838        H842   1.107       .  S
C838        H843   1.107       .  S
C838        H844   1.111       .  S
C845        C846   1.420       .  A
C845        C850   1.414       .  A
C845        H852   1.074       .  S
C847        C854   1.510       .  S
C847        C848   1.402       .  A
C848        C849   1.402       .  A
C848        H853   1.085       .  S
C850        C851   1.508       .  S
C851        H855   1.111       .  S
C851        H856   1.110       .  S
C851        H857   1.110       .  S
C854       H1166   1.111       .  S
C854        H859   1.098       .  S
C854        H860   1.110       .  S
H858       C1162   1.111       .  S
C861        C862   1.414       .  A
C861        C866   1.403       .  A
C861        H868   1.082       .  S
C862        C863   1.427       .  A
C863        C870   1.503   1_455  S
C863        C864   1.408       .  A
C864        C865   1.400       .  A
C864        H869   1.084       .  S
C865        C866   1.410       .  A
C866        C867   1.508       .  S
C867        H871   1.111       .  S
C867        H872   1.110       .  S
C867        H873   1.110       .  S
C870        H874   1.090       .  S
C870       H2107   1.111       .  S
C870        H876   1.108   1_655  S
H875       C2102   1.111       .  S
C877        C878   1.419       .  A
C877        C882   1.413       .  A
C877        H884   1.077       .  S
C878        C879   1.430       .  A
C879       C2118   1.511       .  S
C879        C880   1.400       .  A
C880        C881   1.398       .  A
C880        H885   1.086       .  S
C881        C882   1.410       .  A
C882        C883   1.508       .  S
C883        H887   1.111       .  S
C883        H888   1.108       .  S
C883        H889   1.110       .  S
C886       C2111   1.512       .  S
C886       H2122   1.111       .  S
C886        H891   1.101       .  S
C886        H892   1.110       .  S
H890       C2118   1.111       .  S
C893        C894   1.401       .  A
C893        C898   1.404       .  A
C893        H900   1.084       .  S
C894        C895   1.412       .  A
C895        C902   1.510       .  S
C895        C896   1.403       .  A
C896        C897   1.412       .  A
C896        H901   1.074       .  S
C897        C898   1.430       .  A
C898        C899   1.516       .  S
C899        H903   1.111       .  S
C899        H904   1.104       .  S
C899        H905   1.105       .  S
C902        H906   1.110       .  S
C902        H907   1.109       .  S
C902        H908   1.111       .  S
C909        C910   1.395       .  A
C909        C914   1.401       .  A
C909        H916   1.080       .  S
C910        C911   1.409       .  A
C911        C918   1.506       .  S
C911        C912   1.399       .  A
C912        C913   1.407       .  A
C912        H917   1.083       .  S
C913        C914   1.424       .  A
C914        C915   1.509       .  S
C915        H919   1.111       .  S
C915        H920   1.110       .  S
C915        H921   1.110       .  S
C918        H922   1.102       .  S
C918        H923   1.109       .  S
C918        H924   1.110       .  S
C925        C926   1.539       .  S
C925        C931   1.528       .  S
C925        C929   1.542       .  S
C925       C1205   1.542       .  S
C926        H933   1.080       .  S
C927        C928   1.549       .  S
C928        C932   1.541       .  S
C928        C930   1.552       .  S
C928        H934   1.111       .  S
C929        H935   1.076       .  S
C932       C1218   1.473       .  S
C937        C938   1.546       .  S
C937       C2173   1.532   1_455  S
C937       C1186   1.551       .  S
C938        H945   1.079       .  S
C939        C940   1.539   1_554  S
C940        C944   1.546       .  S
C940       C2174   1.557   1_456  S
C940       H2178   1.100   1_455  S
C941       C2169   1.531       .  S
C941        H947   1.085       .  S
C942       C2172   1.552   1_554  S
C943        H948   1.084       .  S
C943        C944   1.373   1_554  D
C944       C1170   1.523       .  S
H946       C2172   1.100       .  S
C949        C950   1.547       .  S
C949        C955   1.534   1_565  S
C949        C953   1.550   1_565  S
C949       C1154   1.550   1_565  S
C950        H957   1.076       .  S
C951        C952   1.536       .  S
C952        C956   1.533       .  S
C952        C954   1.545   1_565  S
C952        H958   1.111       .  S
C956       C1138   1.474   1_565  S
C961       C2194   1.544   1_455  S
C961        C967   1.538       .  S
C961        C965   1.539       .  S
C961       C1106   1.542       .  S
C962       C2193   1.544       .  S
C962        H969   1.077       .  S
C963       C2196   1.554   1_554  S
C964       C2195   1.553   1_456  S
C964        C968   1.534       .  S
C964        C966   1.546   1_556  S
C964       H1586   1.111       .  S
C965        H971   1.083       .  S
C968       C1125   1.478       .  S
H970       C1580   1.111       .  S
C973        C979   1.547   1_565  S
C973        C977   1.532       .  S
C974        H981   1.076       .  S
C975        C976   1.552   1_545  S
C976        C980   1.545       .  S
C976        C978   1.538       .  S
C976        H982   1.109       .  S
C977        H983   1.086       .  S
C985        C986   1.551       .  S
C985        C991   1.544       .  S
C985        C989   1.534       .  S
C985       C1042   1.550       .  S
C986        H993   1.076       .  S
C987        C988   1.546   1_554  S
C988        C992   1.533       .  S
C988        C990   1.542   1_556  S
C988        H994   1.111       .  S
C989        H995   1.082       .  S
C992       C1058   1.490       .  S
Fe997      O1013   2.040       .  S
Fe997      O1003   2.066       .  S
Fe997      O1010   2.062       .  S
Fe997      O1002   2.043       .  S
Fe997      O1008   1.972       .  S
Fe998      O1001   2.046       .  S
Fe998      O1005   2.072       .  S
Fe998      O1009   2.050       .  S
Fe998      O1014   2.066       .  S
Fe998      O1008   1.980       .  S
Fe999      O1017   2.101       .  S
Fe999      O1004   2.061       .  S
Fe999      O1011   2.067       .  S
Fe999      O1000   2.096       .  S
Fe999      O1008   1.979       .  S
O1000      C1007   1.276       .  A
O1001      C1015   1.267       .  A
O1002      C1007   1.264       .  A
O1003      C1006   1.267       .  A
O1004      C1016   1.267       .  A
O1005      C1018   1.268       .  A
C1006      O1011   1.270       .  A
C1006      C1045   1.494       .  S
C1007      C1061   1.492       .  S
O1009      C1012   1.265       .  A
O1010      C1012   1.269       .  A
C1012      C1122   1.481       .  S
O1013      C1018   1.267       .  A
O1014      C1016   1.268       .  A
C1015      O1017   1.276       .  A
C1015      C1189   1.489       .  S
C1016      C1173   1.478       .  S
C1018      C1109   1.476       .  S
Fe1019     O1035   2.064       .  S
Fe1019     O1025   2.061       .  S
Fe1019     O1032   2.056       .  S
Fe1019     O1024   2.076       .  S
Fe1019     O1030   1.981       .  S
Fe1020     O1023   2.074       .  S
Fe1020     O1027   2.078       .  S
Fe1020     O1031   2.075       .  S
Fe1020     O1036   2.093       .  S
Fe1020     O1030   1.982       .  S
Fe1021     O1039   2.042       .  S
Fe1021     O1026   2.045       .  S
Fe1021     O1033   2.043       .  S
Fe1021     O1022   2.051       .  S
Fe1021     O1030   1.970       .  S
O1022      C1029   1.267       .  A
O1023      C1037   1.268       .  A
O1024      C1029   1.271       .  A
O1025      C1028   1.268       .  A
O1026      C1038   1.266       .  A
O1027      C1040   1.272       .  A
C1028      O1033   1.261       .  A
C1028      C1221   1.488       .  S
C1029      C1202   1.486       .  S
O1031      C1034   1.272       .  A
O1032      C1034   1.268       .  A
C1034      C1077   1.479       .  S
O1035      C1040   1.268       .  A
O1036      C1038   1.273       .  A
C1037      O1039   1.266       .  A
C1037      C1141   1.492       .  S
C1038      C1157   1.489       .  S
C1040      C1093   1.483       .  S
C1041      C1042   1.412       .  A
C1041      C1046   1.410       .  A
C1041      H1048   1.075       .  S
C1042      C1043   1.430       .  A
C1043      C1050   1.508       .  S
C1043      C1044   1.403       .  A
C1044      C1045   1.399       .  A
C1044      H1049   1.084       .  S
C1045      C1046   1.418       .  A
C1046      C1047   1.508       .  S
C1047      H1051   1.109       .  S
C1047      H1052   1.109       .  S
C1047      H1053   1.110       .  S
C1050      H1055   1.106       .  S
C1050      H1056   1.111       .  S
C1057      C1058   1.395       .  A
C1057      C1062   1.404       .  A
C1057      H1064   1.077       .  S
C1058      C1059   1.414       .  A
C1059      C1066   1.499       .  S
C1059      C1060   1.405       .  A
C1060      C1061   1.404       .  A
C1060      H1065   1.083       .  S
C1061      C1062   1.424       .  A
C1062      C1063   1.510       .  S
C1063      H1067   1.111       .  S
C1063      H1068   1.110       .  S
C1063      H1069   1.109       .  S
C1066      H1070   1.105       .  S
C1066      H1072   1.111       .  S
C1073      H1080   1.080       .  S
C1074      C1075   1.419       .  A
C1075      C1082   1.505       .  S
C1075      C1076   1.407       .  A
C1076      C1077   1.406       .  A
C1076      H1081   1.085       .  S
C1077      C1078   1.409       .  A
C1079      H1083   1.111       .  S
C1079      H1084   1.110       .  S
C1082      H1086   1.108       .  S
C1082      H1087   1.110       .  S
C1082      H1088   1.111       .  S
C1089      C1090   1.408       .  A
C1089      C1094   1.408       .  A
C1089      H1096   1.078       .  S
C1090      C1091   1.429       .  A
C1091      C1092   1.404       .  A
C1092      C1093   1.397       .  A
C1092      H1097   1.085       .  S
C1093      C1094   1.412       .  A
C1094      C1095   1.507       .  S
C1095      H1099   1.110       .  S
C1095      H1100   1.111       .  S
C1095      H1101   1.109       .  S
C1098      H1102   1.100       .  S
C1105      C1106   1.415       .  A
C1105      C1110   1.410       .  A
C1105      H1112   1.078   1_455  S
C1106      C1107   1.431       .  A
C1107      C1114   1.506       .  S
C1107      C1108   1.392       .  A
C1108      C1109   1.392       .  A
C1108      H1113   1.086       .  S
C1109      C1110   1.411       .  A
C1110      C1111   1.507       .  S
C1111      H1115   1.108   1_455  S
C1111      H1116   1.109   1_455  S
C1111      H1117   1.111       .  S
C1114      H1119   1.099       .  S
C1114      H1120   1.110       .  S
C1121      C1122   1.402       .  A
C1121      C1126   1.396       .  A
C1121      H1128   1.084       .  S
C1122      C1123   1.419       .  A
C1123      C1130   1.509   1_455  S
C1123      C1124   1.405       .  A
C1124      C1125   1.400       .  A
C1124      H2361   1.079   1_455  S
C1125      C1126   1.411       .  A
C1126      C1127   1.501       .  S
C1127      H1131   1.104       .  S
C1127      H1132   1.110       .  S
C1127      H1133   1.106       .  S
H1129      C2356   1.080       .  S
C1130      H1134   1.111       .  S
C1130      H1135   1.109       .  S
C1130      H2368   1.111       .  S
H1136      C2362   1.111       .  S
C1137      C1138   1.402   1_565  A
C1137      C1142   1.408       .  A
C1137      H1144   1.084       .  S
C1139      C1146   1.500       .  S
C1139      C1140   1.394       .  A
C1140      C1141   1.408       .  A
C1140      H1145   1.084       .  S
C1142      C1143   1.507       .  S
C1143      H1147   1.111       .  S
C1143      H1148   1.105       .  S
C1143      H1149   1.110       .  S
C1146      H1150   1.108       .  S
C1146      H1151   1.107       .  S
C1146      H1152   1.111       .  S
C1153      C1154   1.419   1_565  A
C1153      C1158   1.414       .  A
C1153      H1160   1.076       .  S
C1155      C1162   1.511       .  S
C1155      C1156   1.399       .  A
C1156      C1157   1.400       .  A
C1156      H1161   1.086       .  S
C1158      C1159   1.508       .  S
C1159      H1163   1.111       .  S
C1159      H1164   1.110       .  S
C1159      H1165   1.110       .  S
C1162      H1167   1.099       .  S
C1162      H1168   1.110       .  S
C1169      C1170   1.416       .  A
C1169      C1174   1.401       .  A
C1169      H1176   1.081       .  S
C1170      C1171   1.429       .  A
C1171      C1178   1.504   1_455  S
C1171      C1172   1.408       .  A
C1172      C1173   1.398       .  A
C1172      H1177   1.085       .  S
C1173      C1174   1.407       .  A
C1174      C1175   1.509       .  S
C1175      H1179   1.111       .  S
C1175      H1180   1.110       .  S
C1175      H1181   1.111       .  S
C1178      H1182   1.092       .  S
C1178      H2415   1.111       .  S
C1178      H1184   1.108   1_655  S
H1183      C2410   1.111       .  S
C1185      C1186   1.419       .  A
C1185      C1190   1.413       .  A
C1185      H1192   1.076       .  S
C1186      C1187   1.430       .  A
C1187      C2426   1.512       .  S
C1187      C1188   1.402       .  A
C1188      C1189   1.399       .  A
C1188      H1193   1.086       .  S
C1189      C1190   1.411       .  A
C1190      C1191   1.508       .  S
C1191      H1195   1.111       .  S
C1191      H1196   1.108       .  S
C1191      H1197   1.110       .  S
C1194      C2419   1.512       .  S
C1194      H2430   1.111       .  S
C1194      H1199   1.101       .  S
C1194      H1200   1.110       .  S
H1198      C2426   1.111       .  S
C1201      C1202   1.402       .  A
C1201      C1206   1.404       .  A
C1201      H1208   1.085       .  S
C1202      C1203   1.413       .  A
C1203      C1210   1.510       .  S
C1203      C1204   1.404       .  A
C1204      C1205   1.412       .  A
C1204      H1209   1.076       .  S
C1205      C1206   1.430       .  A
C1206      C1207   1.516       .  S
C1207      H1211   1.111       .  S
C1207      H1212   1.103       .  S
C1207      H1213   1.105       .  S
C1210      H1214   1.111       .  S
C1210      H1215   1.109       .  S
C1210      H1216   1.111       .  S
C1217      C1218   1.395       .  A
C1217      C1222   1.401       .  A
C1217      H1224   1.080       .  S
C1218      C1219   1.410       .  A
C1219      C1226   1.506       .  S
C1219      C1220   1.399       .  A
C1220      C1221   1.407       .  A
C1220      H1225   1.083       .  S
C1221      C1222   1.425       .  A
C1222      C1223   1.509       .  S
C1223      H1227   1.111       .  S
C1223      H1228   1.110       .  S
C1223      H1229   1.110       .  S
C1226      H1230   1.103       .  S
C1226      H1231   1.108       .  S
C1226      H1232   1.110       .  S
C1233      C1234   1.538       .  S
C1233      C1239   1.528       .  S
C1233      C1237   1.544       .  S
C1233      C1513   1.541       .  S
C1234      H1241   1.081       .  S
C1234      C1543   1.366       .  D
C1235      C1236   1.547   1_556  S
C1235      C1542   1.368       .  D
C1235      C1603   1.498   1_556  S
C1236      C1240   1.540       .  S
C1236      C1238   1.552   1_554  S
C1236      H1242   1.111       .  S
C1237      H1243   1.074       .  S
C1237      C1546   1.365       .  D
C1238      C1545   1.366       .  D
C1238      C1558   1.493   1_556  S
C1239      H1552   1.086       .  S
C1239      C1548   1.355       .  D
C1240      C1547   1.356   1_554  D
C1240      C1526   1.475       .  S
H1244      C1547   1.086       .  S
C1245      C1246   1.546       .  S
C1245      C1559   1.543       .  S
C1245      C1494   1.551       .  S
C1246      H1253   1.080       .  S
C1246      C1555   1.369       .  D
C1247      C1248   1.538       .  S
C1247      C1554   1.370       .  D
C1247      C1567   1.487       .  S
C1248      C1252   1.547       .  S
C1249      H1255   1.085       .  S
C1249      C1558   1.362       .  D
C1250      C1557   1.361       .  D
C1250      C1546   1.493       .  S
C1251      C1553   1.543       .  S
C1251      H1256   1.085       .  S
C1251      C1252   1.374       .  D
C1252      C1478   1.526       .  S
C1257      C1258   1.546       .  S
C1257      C1263   1.535       .  S
C1257      C1261   1.549       .  S
C1257      C1462   1.553       .  S
C1258      H1265   1.075       .  S
C1258      C1567   1.372       .  D
C1259      C1260   1.538   1_556  S
C1259      C1566   1.371       .  D
C1259      C1555   1.486   1_556  S
C1260      C1264   1.533       .  S
C1260      C1262   1.546   1_554  S
C1260      H1266   1.111       .  S
C1261      H1883   1.086       .  S
C1261      C1570   1.374       .  D
C1262      C1569   1.373       .  D
C1262      C2198   1.499   1_556  S
C1263      H2192   1.087       .  S
C1263      C1572   1.352       .  D
C1264      C1571   1.352   1_554  D
C1264      C1446   1.473       .  S
H1267      C1877   1.086       .  S
H1268      C2187   1.087       .  S
C1269      C1275   1.538       .  S
C1269      C1273   1.539       .  S
C1269      C1414   1.542       .  S
C1270      H1277   1.079       .  S
C1270      C1579   1.367       .  D
C1271      C1578   1.368       .  D
C1271      C2207   1.490       .  S
C1272      C1276   1.535       .  S
C1272      C1274   1.547       .  S
C1273      H1279   1.082       .  S
C1273      C1582   1.368       .  D
C1274      C1581   1.367       .  D
C1274      C2186   1.496       .  S
C1275      H1588   1.086       .  S
C1275      C1584   1.354   1_554  D
C1276      C1583   1.355       .  D
C1276      C1433   1.478       .  S
H1280      C1583   1.086       .  S
C1281      C1898   1.536       .  S
C1281      C1287   1.546       .  S
C1281      C1285   1.533       .  S
C1281      C1998   1.539       .  S
C1282      C1897   1.537   1_545  S
C1282      H1289   1.074       .  S
C1282      C2207   1.365       .  D
C1283      C1284   1.551   1_556  S
C1283      C2206   1.365       .  D
C1283      C2195   1.488   1_556  S
C1284      C1288   1.547       .  S
C1284      C1286   1.539   1_554  S
C1284      H1290   1.109       .  S
C1285      H1291   1.086       .  S
C1285      C1594   1.365       .  D
C1286      C1593   1.363       .  D
C1286      C1606   1.480   1_556  S
C1287      H2216   1.085       .  S
C1287      C1596   1.364       .  D
C1288      C1595   1.364   1_554  D
C1288      C2014   1.511       .  S
H1292      C2211   1.085       .  S
C1293      C1294   1.552       .  S
C1293      C1299   1.544       .  S
C1293      C1297   1.533       .  S
C1293      C1350   1.549       .  S
C1294      H1301   1.077       .  S
C1294      C1603   1.372       .  D
C1295      C1296   1.548       .  S
C1295      C1602   1.372       .  D
C1295      C1543   1.500       .  S
C1296      C1300   1.535       .  S
C1296      C1298   1.542       .  S
C1296      H1302   1.111       .  S
C1297      H1303   1.082       .  S
C1297      C1606   1.365       .  D
C1298      C1605   1.366       .  D
C1298      C1594   1.483       .  S
C1299      H1612   1.086       .  S
C1299      C1608   1.359   1_554  D
C1300      C1607   1.360       .  D
C1300      C1366   1.492       .  S
H1304      C1607   1.086       .  S
Fe1305     O1321   2.036       .  S
Fe1305     O1311   2.066       .  S
Fe1305     O1318   2.063       .  S
Fe1305     O1310   2.040       .  S
Fe1305     O1316   1.972       .  S
Fe1306     O1309   2.042       .  S
Fe1306     O1313   2.080       .  S
Fe1306     O1317   2.049       .  S
Fe1306     O1322   2.073       .  S
Fe1306     O1316   1.977       .  S
Fe1307     O1325   2.107       .  S
Fe1307     O1312   2.063       .  S
Fe1307     O1319   2.071       .  S
Fe1307     O1308   2.100       .  S
Fe1307     O1316   1.977       .  S
O1308      C1315   1.277       .  A
O1309      C1323   1.266       .  A
O1310      C1315   1.264       .  A
O1311      C1314   1.266       .  A
O1312      C1324   1.267       .  A
O1313      C1326   1.271       .  A
C1314      O1319   1.271       .  A
C1314      C1353   1.497       .  S
C1315      C1369   1.489       .  S
O1317      C1320   1.264       .  A
O1318      C1320   1.269       .  A
C1320      C1430   1.482       .  S
O1321      C1326   1.266       .  A
O1322      C1324   1.270       .  A
C1323      O1325   1.277       .  A
C1323      C1497   1.489       .  S
C1324      C1481   1.482       .  S
C1326      C1417   1.479       .  S
Fe1327     O1343   2.055       .  S
Fe1327     O1333   2.069       .  S
Fe1327     O1340   2.065       .  S
Fe1327     O1332   2.065       .  S
Fe1327     O1338   1.982       .  S
Fe1328     O1331   2.063       .  S
Fe1328     O1335   2.078       .  S
Fe1328     O1339   2.068       .  S
Fe1328     O1344   2.094       .  S
Fe1328     O1338   1.985       .  S
Fe1329     O1347   2.043       .  S
Fe1329     O1334   2.049       .  S
Fe1329     O1341   2.043       .  S
Fe1329     O1330   2.056       .  S
Fe1329     O1338   1.973       .  S
O1330      C1337   1.268       .  A
O1331      C1345   1.266       .  A
O1332      C1337   1.268       .  A
O1333      C1336   1.269       .  A
O1334      C1346   1.267       .  A
O1335      C1348   1.271       .  A
C1336      O1341   1.262       .  A
C1336      C1529   1.490       .  S
C1337      C1510   1.483       .  S
O1339      C1342   1.270       .  A
O1340      C1342   1.270       .  A
C1342      C1385   1.484       .  S
O1343      C1348   1.266       .  A
O1344      C1346   1.273       .  A
C1345      O1347   1.267       .  A
C1345      C1449   1.490       .  S
C1346      C1465   1.495       .  S
C1348      C1401   1.477       .  S
C1349      C1350   1.411       .  A
C1349      C1354   1.410       .  A
C1349      H1356   1.076       .  S
C1350      C1351   1.431       .  A
C1351      C1358   1.509       .  S
C1351      C1352   1.403       .  A
C1352      C1353   1.399       .  A
C1352      H1357   1.084       .  S
C1353      C1354   1.419       .  A
C1354      C1355   1.508       .  S
C1355      H1359   1.109       .  S
C1355      H1360   1.110       .  S
C1355      H1361   1.110       .  S
C1358      H1670   1.101       .  S
C1358      H1363   1.106       .  S
C1358      H1364   1.111       .  S
H1362      C1666   1.100       .  S
C1365      C1366   1.395       .  A
C1365      C1370   1.403       .  A
C1365      H1372   1.077       .  S
C1366      C1367   1.416       .  A
C1367      C1374   1.499       .  S
C1367      C1368   1.405       .  A
C1368      C1369   1.402       .  A
C1368      H1373   1.082       .  S
C1369      C1370   1.422       .  A
C1370      C1371   1.510       .  S
C1371      H1375   1.112       .  S
C1371      H1376   1.110       .  S
C1371      H1377   1.109       .  S
C1374      H1378   1.107       .  S
C1374      H1687   1.107       .  S
C1374      H1380   1.111       .  S
H1379      C1682   1.107       .  S
C1381      C1998   1.413       .  A
C1381      C2002   1.401       .  A
C1381      H1388   1.082       .  S
C1382      C1897   1.541       .  S
C1382      C1997   1.413       .  A
C1382      C1383   1.420   1_565  A
C1383      C1390   1.506       .  S
C1383      C1384   1.406       .  A
C1384      C1385   1.405       .  A
C1384      H1389   1.085       .  S
C1385      C1386   1.413   1_545  A
C1386      C2003   1.509       .  S
C1386      C1997   1.402       .  A
C1387      C2002   1.509       .  S
C1387      H1391   1.111       .  S
C1387      H1392   1.110       .  S
C1387      H2009   1.111       .  S
C1390      H1394   1.108   1_545  S
C1390      H1395   1.109       .  S
C1390      H1396   1.111   1_545  S
H1393      C2003   1.110   1_545  S
C1397      C1398   1.407   1_545  A
C1397      C1402   1.407       .  A
C1397      H1404   1.079       .  S
C1398      C1904   1.508       .  S
C1398      C1399   1.431       .  A
C1399      C2022   1.507       .  S
C1399      C1400   1.403   1_565  A
C1400      C1401   1.396       .  A
C1400      H1405   1.085       .  S
C1401      C1402   1.411       .  A
C1402      C1403   1.506       .  S
C1403      H1407   1.110       .  S
C1403      H1408   1.111       .  S
C1403      H1409   1.109       .  S
C1406      C2015   1.507       .  S
C1406      H1410   1.100       .  S
C1406      H2335   1.110       .  S
C1406      H2028   1.111       .  S
H1411      C2330   1.110   1_545  S
H1412      C2022   1.111       .  S
C1413      C1414   1.415       .  A
C1413      C1418   1.409       .  A
C1413      H1420   1.077       .  S
C1414      C1415   1.430       .  A
C1415      C1422   1.507       .  S
C1415      C1416   1.393       .  A
C1416      C1417   1.395       .  A
C1416      H1421   1.086       .  S
C1417      C1418   1.411       .  A
C1418      C1419   1.507       .  S
C1419      H1423   1.107       .  S
C1419      H1424   1.110       .  S
C1419      H1425   1.111       .  S
C1422      H1734   1.110       .  S
C1422      H1427   1.099       .  S
C1422      H1428   1.110       .  S
H1426      C1730   1.110       .  S
C1429      C1430   1.403       .  A
C1429      C1434   1.396       .  A
C1429      H1436   1.085       .  S
C1430      C1431   1.420       .  A
C1431      C1438   1.509       .  S
C1431      C1432   1.405       .  A
C1432      C1433   1.400       .  A
C1433      C1434   1.410       .  A
C1434      C1435   1.502       .  S
C1435      H1439   1.104       .  S
C1435      H1440   1.110       .  S
C1435      H1441   1.106       .  S
C1438      H1442   1.111       .  S
C1438      H1443   1.109       .  S
C1445      C1446   1.400       .  A
C1445      C1450   1.406       .  A
C1445      H1452   1.084       .  S
C1446      C2063   1.404       .  A
C1447      C1454   1.498       .  S
C1447      C2062   1.402       .  A
C1447      C1448   1.392       .  A
C1448      C1449   1.407       .  A
C1448      H1453   1.084       .  S
C1449      C2066   1.423   1_545  A
C1450      C1451   1.507       .  S
C1450      C2065   1.423       .  A
C1451      H1455   1.111       .  S
C1451      H1456   1.106       .  S
C1451      H1457   1.110       .  S
C1454      H1458   1.107       .  S
C1454      H1459   1.107       .  S
C1454      H1460   1.110       .  S
C1461      C1462   1.420       .  A
C1461      C1466   1.416       .  A
C1461      H1468   1.076       .  S
C1462      C2079   1.430       .  A
C1463      C1470   1.511       .  S
C1463      C2078   1.429       .  A
C1463      C1464   1.400       .  A
C1464      C1465   1.400       .  A
C1464      H1469   1.085       .  S
C1465      C2082   1.414   1_545  A
C1466      C1467   1.507       .  S
C1466      C2081   1.413       .  A
C1467      H1471   1.111       .  S
C1467      H1472   1.110       .  S
C1467      H1473   1.110       .  S
C1470      H1782   1.111       .  S
C1470      H1475   1.099       .  S
C1470      H1476   1.109       .  S
H1474      C1778   1.111       .  S
C1477      C1478   1.416       .  A
C1477      C1482   1.402       .  A
C1477      H1484   1.081       .  S
C1478      C1479   1.430       .  A
C1479      C1486   1.504       .  S
C1479      C1480   1.410       .  A
C1480      C1481   1.399       .  A
C1480      H1485   1.085       .  S
C1481      C1482   1.408       .  A
C1482      C1483   1.508       .  S
C1483      H1487   1.111       .  S
C1483      H1488   1.110       .  S
C1483      H1489   1.111       .  S
C1486      H1490   1.091       .  S
C1486      H1492   1.108       .  S
C1493      C1494   1.418       .  A
C1493      C1498   1.414       .  A
C1493      H1500   1.078       .  S
C1494      C1495   1.431       .  A
C1495      C1496   1.401       .  A
C1496      C1497   1.399       .  A
C1496      H1501   1.086       .  S
C1497      C1498   1.411       .  A
C1498      C1499   1.507       .  S
C1499      H1503   1.111       .  S
C1499      H1504   1.108       .  S
C1499      H1505   1.111       .  S
C1502      H1507   1.100   1_455  S
C1502      H1508   1.110   1_455  S
C1509      C1510   1.399       .  A
C1509      C1514   1.402       .  A
C1509      H1516   1.085       .  S
C1510      C1511   1.413       .  A
C1511      C1518   1.510       .  S
C1511      C1512   1.404       .  A
C1512      C1513   1.412       .  A
C1512      H1517   1.077       .  S
C1513      C1514   1.431       .  A
C1514      C1515   1.516       .  S
C1515      H1519   1.111       .  S
C1515      H1520   1.102       .  S
C1515      H1521   1.105       .  S
C1518      H1522   1.111       .  S
C1518      H1523   1.109       .  S
C1518      H1524   1.111       .  S
C1525      C1526   1.395       .  A
C1525      C1530   1.402       .  A
C1525      H1532   1.081       .  S
C1526      C1527   1.409       .  A
C1527      C1534   1.504       .  S
C1527      C1528   1.400       .  A
C1528      C1529   1.407       .  A
C1528      H1533   1.084       .  S
C1529      C1530   1.425       .  A
C1530      C1531   1.509       .  S
C1531      H1535   1.111       .  S
C1531      H1536   1.110       .  S
C1531      H1537   1.110       .  S
C1534      H1538   1.103       .  S
C1534      H1539   1.109       .  S
C1534      H1540   1.110       .  S
C1541      C1542   1.540       .  S
C1541      C1547   1.529       .  S
C1541      C1545   1.543       .  S
C1541      C1821   1.544       .  S
C1542      H1549   1.079       .  S
C1543      C1544   1.548       .  S
C1544      C1548   1.540       .  S
C1544      C1546   1.552       .  S
C1544      H1550   1.111       .  S
C1545      H1551   1.072       .  S
C1548      C1834   1.472       .  S
C1553      C1554   1.548       .  S
C1553      C1802   1.553       .  S
C1554      H1561   1.080       .  S
C1555      C1556   1.539   1_554  S
C1556      C1560   1.546       .  S
C1557      H1563   1.085       .  S
C1559      H1564   1.084       .  S
C1559      C1560   1.374   1_554  D
C1560      C1786   1.524       .  S
C1565      C1566   1.546       .  S
C1565      C1571   1.536       .  S
C1565      C1569   1.549       .  S
C1565      C1770   1.550       .  S
C1566      H1573   1.075       .  S
C1567      C1568   1.538       .  S
C1568      C1572   1.533       .  S
C1568      C1570   1.546       .  S
C1568      H1574   1.111       .  S
C1569      H2191   1.086       .  S
C1570      C1890   1.500       .  S
C1571      H1884   1.087       .  S
C1572      C1754   1.472       .  S
H1575      C2185   1.085       .  S
H1576      C1879   1.087       .  S
C1577      C1583   1.539       .  S
C1577      C1581   1.537       .  S
C1577      C1722   1.541       .  S
C1578      H1585   1.078       .  S
C1579      C1899   1.489   1_554  S
C1580      C1584   1.534       .  S
C1580      C1582   1.548   1_556  S
C1581      H1587   1.082       .  S
C1582      C1878   1.499   1_554  S
C1584      C1741   1.476       .  S
C1589      C2206   1.535       .  S
C1589      C1595   1.547       .  S
C1589      C1593   1.533       .  S
C1589      C2306   1.537       .  S
C1590      C2205   1.535   1_545  S
C1590      H1597   1.075       .  S
C1590      C1899   1.365       .  D
C1591      C1592   1.551       .  S
C1591      C1898   1.365       .  D
C1591      C1887   1.489       .  S
C1592      C1596   1.546       .  S
C1592      C1594   1.540       .  S
C1592      H1598   1.108       .  S
C1593      H1599   1.086       .  S
C1595      H1908   1.085       .  S
C1596      C2322   1.509       .  S
H1600      C1903   1.085       .  S
C1601      C1602   1.552       .  S
C1601      C1607   1.545       .  S
C1601      C1605   1.534       .  S
C1601      C1658   1.553       .  S
C1602      H1609   1.077       .  S
C1603      C1604   1.546   1_554  S
C1604      C1608   1.533       .  S
C1604      C1606   1.543   1_556  S
C1604      H1610   1.111       .  S
C1605      H1611   1.082       .  S
C1608      C1674   1.487       .  S
Fe1613     O1629   2.036       .  S
Fe1613     O1619   2.070       .  S
Fe1613     O1626   2.063       .  S
Fe1613     O1618   2.038       .  S
Fe1613     O1624   1.969       .  S
Fe1614     O1617   2.045       .  S
Fe1614     O1621   2.078       .  S
Fe1614     O1625   2.048       .  S
Fe1614     O1630   2.070       .  S
Fe1614     O1624   1.975       .  S
Fe1615     O1633   2.107       .  S
Fe1615     O1620   2.062       .  S
Fe1615     O1627   2.073       .  S
Fe1615     O1616   2.098       .  S
Fe1615     O1624   1.972       .  S
O1616      C1623   1.277       .  A
O1617      C1631   1.268       .  A
O1618      C1623   1.264       .  A
O1619      C1622   1.267       .  A
O1620      C1632   1.267       .  A
O1621      C1634   1.270       .  A
C1622      O1627   1.271       .  A
C1622      C1661   1.500       .  S
C1623      C1677   1.490       .  S
O1625      C1628   1.264       .  A
O1626      C1628   1.268       .  A
C1628      C1738   1.479       .  S
O1629      C1634   1.267       .  A
O1630      C1632   1.269       .  A
C1631      O1633   1.278       .  A
C1631      C1805   1.492       .  S
C1632      C1789   1.480       .  S
C1634      C1725   1.479       .  S
Fe1635     O1651   2.061       .  S
Fe1635     O1641   2.060       .  S
Fe1635     O1648   2.055       .  S
Fe1635     O1640   2.076       .  S
Fe1635     O1646   1.985       .  S
Fe1636     O1639   2.073       .  S
Fe1636     O1643   2.076       .  S
Fe1636     O1647   2.068       .  S
Fe1636     O1652   2.096       .  S
Fe1636     O1646   1.985       .  S
Fe1637     O1655   2.043       .  S
Fe1637     O1642   2.049       .  S
Fe1637     O1649   2.046       .  S
Fe1637     O1638   2.056       .  S
Fe1637     O1646   1.971       .  S
O1638      C1645   1.268       .  A
O1639      C1653   1.267       .  A
O1640      C1645   1.270       .  A
O1641      C1644   1.268       .  A
O1642      C1654   1.267       .  A
O1643      C1656   1.271       .  A
C1644      O1649   1.263       .  A
C1644      C1837   1.487       .  S
C1645      C1818   1.487       .  S
O1647      C1650   1.271       .  A
O1648      C1650   1.268       .  A
C1650      C1693   1.476       .  S
O1651      C1656   1.267       .  A
O1652      C1654   1.274       .  A
C1653      O1655   1.266       .  A
C1653      C1757   1.495       .  S
C1654      C1773   1.496       .  S
C1656      C1709   1.480       .  S
C1657      C1658   1.411       .  A
C1657      C1662   1.412       .  A
C1657      H1664   1.076       .  S
C1658      C1659   1.430       .  A
C1659      C1666   1.507       .  S
C1659      C1660   1.403       .  A
C1660      C1661   1.399       .  A
C1660      H1665   1.084       .  S
C1661      C1662   1.420       .  A
C1662      C1663   1.508       .  S
C1663      H1667   1.109       .  S
C1663      H1668   1.109       .  S
C1663      H1669   1.111       .  S
C1666      H1671   1.105       .  S
C1666      H1672   1.111       .  S
C1673      C1674   1.395       .  A
C1673      C1678   1.403       .  A
C1673      H1680   1.075       .  S
C1674      C1675   1.413       .  A
C1675      C1682   1.500       .  S
C1675      C1676   1.404       .  A
C1676      C1677   1.404       .  A
C1676      H1681   1.083       .  S
C1677      C1678   1.423       .  A
C1678      C1679   1.510       .  S
C1679      H1683   1.111       .  S
C1679      H1684   1.110       .  S
C1679      H1685   1.110       .  S
C1682      H1686   1.106       .  S
C1682      H1688   1.111       .  S
C1689      C2306   1.413       .  A
C1689      C2310   1.399       .  A
C1689      H1696   1.081       .  S
C1690      C2205   1.537       .  S
C1690      C2305   1.413       .  A
C1690      C1691   1.419   1_565  A
C1691      C1698   1.506       .  S
C1691      C1692   1.406       .  A
C1692      C1693   1.405       .  A
C1692      H1697   1.085       .  S
C1693      C1694   1.409   1_545  A
C1694      C2311   1.510       .  S
C1694      C2305   1.398       .  A
C1695      C2310   1.509       .  S
C1695      H1699   1.111       .  S
C1695      H1700   1.110       .  S
C1695      H2317   1.111       .  S
C1698      H1702   1.108   1_545  S
C1698      H1703   1.109       .  S
C1698      H1704   1.111   1_545  S
H1701      C2311   1.111   1_545  S
C1705      C1706   1.408   1_545  A
C1705      C1710   1.407       .  A
C1705      H1712   1.078       .  S
C1706      C2212   1.508       .  S
C1706      C1707   1.430       .  A
C1707      C2330   1.508       .  S
C1707      C1708   1.403   1_565  A
C1708      C1709   1.397       .  A
C1708      H1713   1.085       .  S
C1709      C1710   1.411       .  A
C1710      C1711   1.507       .  S
C1711      H1715   1.110       .  S
C1711      H1716   1.111       .  S
C1711      H1717   1.109       .  S
C1714      C2323   1.508       .  S
C1714      H1718   1.098       .  S
C1714      H2027   1.110       .  S
C1714      H2336   1.111       .  S
H1719      C2022   1.110   1_545  S
H1720      C2330   1.111       .  S
C1721      C1722   1.415       .  A
C1721      C1726   1.408       .  A
C1721      H1728   1.077       .  S
C1722      C1723   1.429       .  A
C1723      C1730   1.507       .  S
C1723      C1724   1.393       .  A
C1724      C1725   1.395       .  A
C1724      H1729   1.086       .  S
C1725      C1726   1.412       .  A
C1726      C1727   1.507       .  S
C1727      H1731   1.107       .  S
C1727      H1732   1.110       .  S
C1727      H1733   1.110       .  S
C1730      H1735   1.099       .  S
C1730      H1736   1.110       .  S
C1737      C1738   1.403       .  A
C1737      C1742   1.396       .  A
C1737      H1744   1.085       .  S
C1738      C1739   1.418       .  A
C1739      C1746   1.508       .  S
C1739      C1740   1.403       .  A
C1740      C1741   1.399       .  A
C1741      C1742   1.410       .  A
C1742      C1743   1.502       .  S
C1743      H1747   1.104       .  S
C1743      H1748   1.110       .  S
C1743      H1749   1.106       .  S
C1746      H1750   1.111       .  S
C1746      H1751   1.109       .  S
C1753      C1754   1.401       .  A
C1753      C1758   1.406       .  A
C1753      H1760   1.084       .  S
C1754      C2371   1.404       .  A
C1755      C1762   1.499       .  S
C1755      C2370   1.403       .  A
C1755      C1756   1.394       .  A
C1756      C1757   1.408       .  A
C1756      H1761   1.084       .  S
C1757      C2374   1.423   1_545  A
C1758      C1759   1.507       .  S
C1758      C2373   1.422       .  A
C1759      H1763   1.111       .  S
C1759      H1764   1.105       .  S
C1759      H1765   1.110       .  S
C1762      H1766   1.108       .  S
C1762      H1767   1.107       .  S
C1762      H1768   1.111       .  S
C1769      C1770   1.420       .  A
C1769      C1774   1.414       .  A
C1769      H1776   1.075       .  S
C1770      C2387   1.429       .  A
C1771      C1778   1.511       .  S
C1771      C2386   1.429   1_545  A
C1771      C1772   1.400       .  A
C1772      C1773   1.401       .  A
C1772      H1777   1.085       .  S
C1773      C2390   1.414   1_545  A
C1774      C1775   1.507       .  S
C1774      C2389   1.412       .  A
C1775      H1779   1.111       .  S
C1775      H1780   1.110       .  S
C1775      H1781   1.110       .  S
C1778      H1783   1.098       .  S
C1778      H1784   1.110       .  S
C1785      C1786   1.416       .  A
C1785      C1790   1.401       .  A
C1785      H1792   1.081       .  S
C1786      C1787   1.430       .  A
C1787      C1794   1.504       .  S
C1787      C1788   1.409       .  A
C1788      C1789   1.399       .  A
C1788      H1793   1.085       .  S
C1789      C1790   1.408       .  A
C1790      C1791   1.508       .  S
C1791      H1795   1.111       .  S
C1791      H1796   1.109       .  S
C1791      H1797   1.111       .  S
C1794      H1798   1.091       .  S
C1794      H1800   1.108       .  S
C1801      C1802   1.419       .  A
C1801      C1806   1.414       .  A
C1801      H1808   1.077       .  S
C1802      C1803   1.431       .  A
C1803      C1804   1.402       .  A
C1804      C1805   1.400       .  A
C1804      H1809   1.086       .  S
C1805      C1806   1.412       .  A
C1806      C1807   1.508       .  S
C1807      H1811   1.111       .  S
C1807      H1812   1.108       .  S
C1807      H1813   1.111       .  S
C1810      H1815   1.101       .  S
C1810      H1816   1.110   1_455  S
C1817      C1818   1.401       .  A
C1817      C1822   1.404       .  A
C1817      H1824   1.085       .  S
C1818      C1819   1.413       .  A
C1819      C1826   1.509       .  S
C1819      C1820   1.406       .  A
C1820      C1821   1.413       .  A
C1820      H1825   1.075       .  S
C1821      C1822   1.430       .  A
C1822      C1823   1.515       .  S
C1823      H1827   1.111       .  S
C1823      H1828   1.101       .  S
C1823      H1829   1.104       .  S
C1826      H1830   1.111       .  S
C1826      H1831   1.109       .  S
C1826      H1832   1.111       .  S
C1833      C1834   1.394       .  A
C1833      C1838   1.400       .  A
C1833      H1840   1.080       .  S
C1834      C1835   1.410       .  A
C1835      C1842   1.506       .  S
C1835      C1836   1.399       .  A
C1836      C1837   1.407       .  A
C1836      H1841   1.084       .  S
C1837      C1838   1.424       .  A
C1838      C1839   1.509       .  S
C1839      H1843   1.111       .  S
C1839      H1844   1.110       .  S
C1839      H1845   1.110       .  S
C1842      H1846   1.104       .  S
C1842      H1847   1.109       .  S
C1842      H1848   1.111       .  S
C1849      C1850   1.538       .  S
C1849      C1855   1.527       .  S
C1849      C1853   1.541       .  S
C1849      C2129   1.540       .  S
C1850      H1857   1.079       .  S
C1850      C2159   1.366       .  D
C1851      C1852   1.548   1_556  S
C1851      C2158   1.366       .  D
C1851      C2219   1.497   1_556  S
C1852      C1856   1.541       .  S
C1852      C1854   1.552   1_554  S
C1852      H1858   1.111       .  S
C1853      H1859   1.076       .  S
C1853      C2162   1.362       .  D
C1854      C2161   1.364       .  D
C1854      C2174   1.493   1_556  S
C1855      H2168   1.086       .  S
C1855      C2164   1.356       .  D
C1856      C2163   1.356   1_554  D
C1856      C2142   1.474       .  S
H1860      C2163   1.086       .  S
C1861      C1862   1.546       .  S
C1861      C2175   1.542       .  S
C1861      C2110   1.549       .  S
C1862      H1869   1.079       .  S
C1862      C2171   1.370       .  D
C1863      C1864   1.536       .  S
C1863      C2170   1.370       .  D
C1863      C2183   1.483       .  S
C1864      C1868   1.546       .  S
C1865      H1871   1.085       .  S
C1865      C2174   1.362       .  D
C1866      C2173   1.362       .  D
C1866      C2162   1.491       .  S
C1867      C2169   1.543       .  S
C1867      H1872   1.085       .  S
C1867      C1868   1.373       .  D
C1868      C2094   1.523       .  S
C1873      C1874   1.546       .  S
C1873      C1879   1.536   1_565  S
C1873      C1877   1.548   1_565  S
C1873      C2078   1.550   1_565  S
C1874      H1881   1.076       .  S
C1874      C2183   1.373       .  D
C1875      C1876   1.534   1_556  S
C1875      C2182   1.372       .  D
C1875      C2171   1.482   1_556  S
C1876      C1880   1.531       .  S
C1876      C1878   1.544   1_564  S
C1876      H1882   1.111       .  S
C1877      C2186   1.373       .  D
C1878      C2185   1.375       .  D
C1879      C2188   1.352   1_545  D
C1880      C2187   1.350   1_564  D
C1880      C2062   1.470   1_565  S
C1885      C1891   1.538       .  S
C1885      C1889   1.539       .  S
C1885      C2030   1.543       .  S
C1886      H1893   1.077       .  S
C1886      C2195   1.367       .  D
C1887      C2194   1.369       .  D
C1888      C1892   1.534       .  S
C1888      C1890   1.547       .  S
C1889      H1895   1.084       .  S
C1889      C2198   1.368       .  D
C1890      C2197   1.369       .  D
C1891      H2204   1.086       .  S
C1891      C2200   1.355   1_554  D
C1892      C2199   1.354       .  D
C1892      C2049   1.477       .  S
H1896      C2199   1.086       .  S
C1897      C1903   1.547   1_565  S
C1897      C1901   1.535       .  S
C1898      H1905   1.076       .  S
C1899      C1900   1.552   1_546  S
C1900      C1904   1.546       .  S
C1900      C1902   1.538   1_554  S
C1900      H1906   1.108       .  S
C1901      H1907   1.086       .  S
C1901      C2210   1.365       .  D
C1902      C2209   1.364       .  D
C1902      C2222   1.479   1_556  S
C1903      C2212   1.365   1_545  D
C1904      C2211   1.362   1_564  D
C1909      C1910   1.551       .  S
C1909      C1915   1.544       .  S
C1909      C1913   1.533       .  S
C1909      C1966   1.549       .  S
C1910      H1917   1.077       .  S
C1910      C2219   1.370       .  D
C1911      C1912   1.547       .  S
C1911      C2218   1.371       .  D
C1911      C2159   1.498       .  S
C1912      C1916   1.535       .  S
C1912      C1914   1.541       .  S
C1912      H1918   1.111       .  S
C1913      H1919   1.082       .  S
C1913      C2222   1.365       .  D
C1914      C2221   1.367       .  D
C1914      C2210   1.481       .  S
C1915      H2228   1.086       .  S
C1915      C2224   1.360   1_554  D
C1916      C2223   1.358       .  D
C1916      C1982   1.489       .  S
H1920      C2223   1.086       .  S
Fe1921     O1937   2.037       .  S
Fe1921     O1927   2.066       .  S
Fe1921     O1934   2.060       .  S
Fe1921     O1926   2.040       .  S
Fe1921     O1932   1.973       .  S
Fe1922     O1925   2.045       .  S
Fe1922     O1929   2.078       .  S
Fe1922     O1933   2.050       .  S
Fe1922     O1938   2.070       .  S
Fe1922     O1932   1.981       .  S
Fe1923     O1941   2.099       .  S
Fe1923     O1928   2.060       .  S
Fe1923     O1935   2.068       .  S
Fe1923     O1924   2.093       .  S
Fe1923     O1932   1.982       .  S
O1924      C1931   1.276       .  A
O1925      C1939   1.267       .  A
O1926      C1931   1.264       .  A
O1927      C1930   1.267       .  A
O1928      C1940   1.266       .  A
O1929      C1942   1.270       .  A
C1930      O1935   1.270       .  A
C1930      C1969   1.495       .  S
C1931      C1985   1.490       .  S
O1933      C1936   1.264       .  A
O1934      C1936   1.268       .  A
C1936      C2046   1.482       .  S
O1937      C1942   1.266       .  A
O1938      C1940   1.269       .  A
C1939      O1941   1.276       .  A
C1939      C2113   1.486       .  S
C1940      C2097   1.480       .  S
C1942      C2033   1.477       .  S
Fe1943     O1959   2.061       .  S
Fe1943     O1949   2.066       .  S
Fe1943     O1956   2.060       .  S
Fe1943     O1948   2.074       .  S
Fe1943     O1954   1.983       .  S
Fe1944     O1947   2.068       .  S
Fe1944     O1951   2.083       .  S
Fe1944     O1955   2.072       .  S
Fe1944     O1960   2.099       .  S
Fe1944     O1954   1.982       .  S
Fe1945     O1963   2.046       .  S
Fe1945     O1950   2.052       .  S
Fe1945     O1957   2.046       .  S
Fe1945     O1946   2.053       .  S
Fe1945     O1954   1.970       .  S
O1946      C1953   1.268       .  A
O1947      C1961   1.267       .  A
O1948      C1953   1.270       .  A
O1949      C1952   1.268       .  A
O1950      C1962   1.267       .  A
O1951      C1964   1.273       .  A
C1952      O1957   1.262       .  A
C1952      C2145   1.492       .  S
C1953      C2126   1.485       .  S
O1955      C1958   1.271       .  A
O1956      C1958   1.269       .  A
C1958      C2001   1.480       .  S
O1959      C1964   1.267       .  A
O1960      C1962   1.274       .  A
C1961      O1963   1.267       .  A
C1961      C2065   1.493       .  S
C1962      C2081   1.496       .  S
C1964      C2017   1.485       .  S
C1965      C1966   1.411       .  A
C1965      C1970   1.409       .  A
C1965      H1972   1.077       .  S
C1966      C1967   1.431       .  A
C1967      C1974   1.509       .  S
C1967      C1968   1.403       .  A
C1968      C1969   1.399       .  A
C1968      H1973   1.084       .  S
C1969      C1970   1.418       .  A
C1970      C1971   1.508       .  S
C1971      H1975   1.108       .  S
C1971      H1976   1.110       .  S
C1971      H1977   1.110       .  S
C1974      H2286   1.101       .  S
C1974      H1979   1.106       .  S
C1974      H1980   1.111       .  S
H1978      C2282   1.099       .  S
C1981      C1982   1.395       .  A
C1981      C1986   1.403       .  A
C1981      H1988   1.075       .  S
C1982      C1983   1.415       .  A
C1983      C1990   1.499       .  S
C1983      C1984   1.404       .  A
C1984      C1985   1.403       .  A
C1984      H1989   1.083       .  S
C1985      C1986   1.423       .  A
C1986      C1987   1.510       .  S
C1987      H1991   1.111       .  S
C1987      H1992   1.110       .  S
C1987      H1993   1.109       .  S
C1990      H1994   1.107       .  S
C1990      H2303   1.107       .  S
C1990      H1996   1.111       .  S
H1995      C2298   1.107       .  S
C1997      H2004   1.082       .  S
C1998      C1999   1.419       .  A
C1999      C2006   1.506       .  S
C1999      C2000   1.405       .  A
C2000      C2001   1.405       .  A
C2000      H2005   1.085       .  S
C2001      C2002   1.411       .  A
C2003      H2007   1.111       .  S
C2003      H2008   1.110       .  S
C2006      H2010   1.108       .  S
C2006      H2011   1.110       .  S
C2006      H2012   1.111       .  S
C2013      C2014   1.407       .  A
C2013      C2018   1.408       .  A
C2013      H2020   1.078       .  S
C2014      C2015   1.430       .  A
C2015      C2016   1.405       .  A
C2016      C2017   1.398       .  A
C2016      H2021   1.085       .  S
C2017      C2018   1.413       .  A
C2018      C2019   1.506       .  S
C2019      H2023   1.110       .  S
C2019      H2024   1.111       .  S
C2019      H2025   1.109       .  S
C2022      H2026   1.100       .  S
C2029      C2030   1.416       .  A
C2029      C2034   1.410       .  A
C2029      H2036   1.078       .  S
C2030      C2031   1.430       .  A
C2031      C2038   1.506       .  S
C2031      C2032   1.393       .  A
C2032      C2033   1.393       .  A
C2032      H2037   1.086       .  S
C2033      C2034   1.411       .  A
C2034      C2035   1.507       .  S
C2035      H2039   1.108       .  S
C2035      H2040   1.109       .  S
C2035      H2041   1.111       .  S
C2038      H2350   1.110       .  S
C2038      H2043   1.100       .  S
C2038      H2044   1.110       .  S
H2042      C2346   1.110       .  S
C2045      C2046   1.403       .  A
C2045      C2050   1.396       .  A
C2045      H2052   1.084       .  S
C2046      C2047   1.420       .  A
C2047      C2054   1.508       .  S
C2047      C2048   1.405       .  A
C2048      C2049   1.399       .  A
C2049      C2050   1.410       .  A
C2050      C2051   1.501       .  S
C2051      H2055   1.103       .  S
C2051      H2056   1.110       .  S
C2051      H2057   1.106       .  S
C2054      H2058   1.111       .  S
C2054      H2059   1.109       .  S
C2061      C2062   1.401   1_565  A
C2061      C2066   1.406       .  A
C2061      H2068   1.084       .  S
C2063      C2070   1.499       .  S
C2063      C2064   1.395       .  A
C2064      C2065   1.408       .  A
C2064      H2069   1.084       .  S
C2066      C2067   1.507       .  S
C2067      H2071   1.111       .  S
C2067      H2072   1.105       .  S
C2067      H2073   1.110       .  S
C2070      H2074   1.106       .  S
C2070      H2075   1.107       .  S
C2070      H2076   1.111       .  S
C2077      C2078   1.419   1_565  A
C2077      C2082   1.414       .  A
C2077      H2084   1.076       .  S
C2079      C2086   1.510       .  S
C2079      C2080   1.401       .  A
C2080      C2081   1.400       .  A
C2080      H2085   1.085       .  S
C2082      C2083   1.508       .  S
C2083      H2087   1.111       .  S
C2083      H2088   1.110       .  S
C2083      H2089   1.110       .  S
C2086      H2398   1.111       .  S
C2086      H2091   1.098       .  S
C2086      H2092   1.110       .  S
H2090      C2394   1.111       .  S
C2093      C2094   1.415       .  A
C2093      C2098   1.402       .  A
C2093      H2100   1.082       .  S
C2094      C2095   1.428       .  A
C2095      C2102   1.504       .  S
C2095      C2096   1.408       .  A
C2096      C2097   1.398       .  A
C2096      H2101   1.085       .  S
C2097      C2098   1.409       .  A
C2098      C2099   1.508       .  S
C2099      H2103   1.111       .  S
C2099      H2104   1.110       .  S
C2099      H2105   1.110       .  S
C2102      H2106   1.091       .  S
C2102      H2108   1.108       .  S
C2109      C2110   1.418       .  A
C2109      C2114   1.412       .  A
C2109      H2116   1.077       .  S
C2110      C2111   1.430       .  A
C2111      C2112   1.400       .  A
C2112      C2113   1.399       .  A
C2112      H2117   1.086       .  S
C2113      C2114   1.410       .  A
C2114      C2115   1.508       .  S
C2115      H2119   1.111       .  S
C2115      H2120   1.108       .  S
C2115      H2121   1.111       .  S
C2118      H2123   1.100       .  S
C2118      H2124   1.110   1_455  S
C2125      C2126   1.402       .  A
C2125      C2130   1.404       .  A
C2125      H2132   1.084       .  S
C2126      C2127   1.413       .  A
C2127      C2134   1.510       .  S
C2127      C2128   1.402       .  A
C2128      C2129   1.411       .  A
C2128      H2133   1.075       .  S
C2129      C2130   1.429       .  A
C2130      C2131   1.516       .  S
C2131      H2135   1.111       .  S
C2131      H2136   1.104       .  S
C2131      H2137   1.105       .  S
C2134      H2138   1.110       .  S
C2134      H2139   1.109       .  S
C2134      H2140   1.111       .  S
C2141      C2142   1.394       .  A
C2141      C2146   1.401       .  A
C2141      H2148   1.081       .  S
C2142      C2143   1.410       .  A
C2143      C2150   1.505       .  S
C2143      C2144   1.401       .  A
C2144      C2145   1.408       .  A
C2144      H2149   1.084       .  S
C2145      C2146   1.426       .  A
C2146      C2147   1.509       .  S
C2147      H2151   1.111       .  S
C2147      H2152   1.110       .  S
C2147      H2153   1.110       .  S
C2150      H2154   1.103       .  S
C2150      H2155   1.109       .  S
C2150      H2156   1.110       .  S
C2157      C2158   1.538       .  S
C2157      C2163   1.528       .  S
C2157      C2161   1.544       .  S
C2157      C2437   1.541       .  S
C2158      H2165   1.077       .  S
C2159      C2160   1.549       .  S
C2160      C2164   1.541       .  S
C2160      C2162   1.553       .  S
C2160      H2166   1.111       .  S
C2161      H2167   1.075       .  S
C2164      C2450   1.472       .  S
C2169      C2170   1.545       .  S
C2169      C2418   1.550       .  S
C2170      H2177   1.079       .  S
C2171      C2172   1.535   1_554  S
C2172      C2176   1.544       .  S
C2173      H2179   1.085       .  S
C2175      H2180   1.085       .  S
C2175      C2176   1.373   1_554  D
C2176      C2402   1.520       .  S
C2181      C2182   1.546       .  S
C2181      C2187   1.533   1_565  S
C2181      C2185   1.552   1_565  S
C2181      C2386   1.551       .  S
C2182      H2189   1.074       .  S
C2183      C2184   1.535       .  S
C2184      C2188   1.532       .  S
C2184      C2186   1.544   1_565  S
C2184      H2190   1.111       .  S
C2188      C2370   1.475   1_565  S
C2193      C2199   1.538       .  S
C2193      C2197   1.541       .  S
C2193      C2338   1.543       .  S
C2194      H2201   1.078       .  S
C2196      C2200   1.535       .  S
C2196      C2198   1.549   1_556  S
C2197      H2203   1.083       .  S
C2200      C2357   1.478       .  S
C2205      C2211   1.546   1_565  S
C2205      C2209   1.532       .  S
C2206      H2213   1.074       .  S
C2207      C2208   1.551   1_545  S
C2208      C2212   1.544       .  S
C2208      C2210   1.538       .  S
C2208      H2214   1.109       .  S
C2209      H2215   1.086       .  S
C2217      C2218   1.552       .  S
C2217      C2223   1.543       .  S
C2217      C2221   1.535       .  S
C2217      C2274   1.548       .  S
C2218      H2225   1.076       .  S
C2219      C2220   1.546   1_554  S
C2220      C2224   1.534       .  S
C2220      C2222   1.542   1_556  S
C2220      H2226   1.111       .  S
C2221      H2227   1.082       .  S
C2224      C2290   1.490       .  S
Fe2229     O2245   2.040       .  S
Fe2229     O2235   2.059       .  S
Fe2229     O2242   2.058       .  S
Fe2229     O2234   2.043       .  S
Fe2229     O2240   1.974       .  S
Fe2230     O2233   2.047       .  S
Fe2230     O2237   2.070       .  S
Fe2230     O2241   2.054       .  S
Fe2230     O2246   2.062       .  S
Fe2230     O2240   1.980       .  S
Fe2231     O2249   2.101       .  S
Fe2231     O2236   2.059       .  S
Fe2231     O2243   2.067       .  S
Fe2231     O2232   2.093       .  S
Fe2231     O2240   1.981       .  S
O2232      C2239   1.276       .  A
O2233      C2247   1.267       .  A
O2234      C2239   1.264       .  A
O2235      C2238   1.265       .  A
O2236      C2248   1.266       .  A
O2237      C2250   1.268       .  A
C2238      O2243   1.270       .  A
C2238      C2277   1.491       .  S
C2239      C2293   1.491       .  S
O2241      C2244   1.265       .  A
O2242      C2244   1.268       .  A
C2244      C2354   1.482       .  S
O2245      C2250   1.266       .  A
O2246      C2248   1.267       .  A
C2247      O2249   1.276       .  A
C2247      C2421   1.488       .  S
C2248      C2405   1.475       .  S
C2250      C2341   1.476       .  S
Fe2251     O2267   2.064       .  S
Fe2251     O2257   2.058       .  S
Fe2251     O2264   2.051       .  S
Fe2251     O2256   2.074       .  S
Fe2251     O2262   1.980       .  S
Fe2252     O2255   2.072       .  S
Fe2252     O2259   2.078       .  S
Fe2252     O2263   2.071       .  S
Fe2252     O2268   2.096       .  S
Fe2252     O2262   1.982       .  S
Fe2253     O2271   2.041       .  S
Fe2253     O2258   2.045       .  S
Fe2253     O2265   2.044       .  S
Fe2253     O2254   2.052       .  S
Fe2253     O2262   1.971       .  S
O2254      C2261   1.267       .  A
O2255      C2269   1.268       .  A
O2256      C2261   1.270       .  A
O2257      C2260   1.267       .  A
O2258      C2270   1.265       .  A
O2259      C2272   1.272       .  A
C2260      O2265   1.261       .  A
C2260      C2453   1.488       .  S
C2261      C2434   1.485       .  S
O2263      C2266   1.271       .  A
O2264      C2266   1.267       .  A
C2266      C2309   1.475       .  S
O2267      C2272   1.267       .  A
O2268      C2270   1.274       .  A
C2269      O2271   1.266       .  A
C2269      C2373   1.492       .  S
C2270      C2389   1.492       .  S
C2272      C2325   1.483       .  S
C2273      C2274   1.411       .  A
C2273      C2278   1.409       .  A
C2273      H2280   1.076       .  S
C2274      C2275   1.430       .  A
C2275      C2282   1.507       .  S
C2275      C2276   1.401       .  A
C2276      C2277   1.397       .  A
C2276      H2281   1.084       .  S
C2277      C2278   1.418       .  A
C2278      C2279   1.508       .  S
C2279      H2283   1.109       .  S
C2279      H2284   1.110       .  S
C2279      H2285   1.110       .  S
C2282      H2287   1.105       .  S
C2282      H2288   1.111       .  S
C2289      C2290   1.396       .  A
C2289      C2294   1.404       .  A
C2289      H2296   1.072       .  S
C2290      C2291   1.414       .  A
C2291      C2298   1.500       .  S
C2291      C2292   1.404       .  A
C2292      C2293   1.404       .  A
C2292      H2297   1.083       .  S
C2293      C2294   1.423       .  A
C2294      C2295   1.510       .  S
C2295      H2299   1.111       .  S
C2295      H2300   1.110       .  S
C2295      H2301   1.109       .  S
C2298      H2302   1.106       .  S
C2298      H2304   1.111       .  S
C2305      H2312   1.081       .  S
C2306      C2307   1.419       .  A
C2307      C2314   1.506       .  S
C2307      C2308   1.405       .  A
C2308      C2309   1.405       .  A
C2308      H2313   1.085       .  S
C2309      C2310   1.409       .  A
C2311      H2315   1.111       .  S
C2311      H2316   1.110       .  S
C2314      H2318   1.108       .  S
C2314      H2319   1.109       .  S
C2314      H2320   1.111       .  S
C2321      C2322   1.408       .  A
C2321      C2326   1.408       .  A
C2321      H2328   1.078       .  S
C2322      C2323   1.430       .  A
C2323      C2324   1.403       .  A
C2324      C2325   1.397       .  A
C2324      H2329   1.085       .  S
C2325      C2326   1.412       .  A
C2326      C2327   1.506       .  S
C2327      H2331   1.110       .  S
C2327      H2332   1.111       .  S
C2327      H2333   1.109       .  S
C2330      H2334   1.099       .  S
C2337      C2338   1.416       .  A
C2337      C2342   1.409       .  A
C2337      H2344   1.077       .  S
C2338      C2339   1.430       .  A
C2339      C2346   1.506       .  S
C2339      C2340   1.393       .  A
C2340      C2341   1.393       .  A
C2340      H2345   1.086       .  S
C2341      C2342   1.411       .  A
C2342      C2343   1.507       .  S
C2343      H2347   1.107       .  S
C2343      H2348   1.110       .  S
C2343      H2349   1.111       .  S
C2346      H2351   1.099       .  S
C2346      H2352   1.110       .  S
C2353      C2354   1.404       .  A
C2353      C2358   1.397       .  A
C2353      H2360   1.084       .  S
C2354      C2355   1.419       .  A
C2355      C2362   1.508       .  S
C2355      C2356   1.405       .  A
C2356      C2357   1.399       .  A
C2357      C2358   1.411       .  A
C2358      C2359   1.502       .  S
C2359      H2363   1.104       .  S
C2359      H2364   1.110       .  S
C2359      H2365   1.106       .  S
C2362      H2366   1.111       .  S
C2362      H2367   1.109       .  S
C2369      C2370   1.402   1_565  A
C2369      C2374   1.408       .  A
C2369      H2376   1.084       .  S
C2371      C2378   1.500       .  S
C2371      C2372   1.394       .  A
C2372      C2373   1.408       .  A
C2372      H2377   1.084       .  S
C2374      C2375   1.507       .  S
C2375      H2379   1.111       .  S
C2375      H2380   1.106       .  S
C2375      H2381   1.110       .  S
C2378      H2382   1.108       .  S
C2378      H2383   1.107       .  S
C2378      H2384   1.111       .  S
C2385      C2386   1.420       .  A
C2385      C2390   1.415       .  A
C2385      H2392   1.074       .  S
C2387      C2394   1.511       .  S
C2387      C2388   1.399       .  A
C2388      C2389   1.401       .  A
C2388      H2393   1.086       .  S
C2390      C2391   1.508       .  S
C2391      H2395   1.111       .  S
C2391      H2396   1.110       .  S
C2391      H2397   1.110       .  S
C2394      H2399   1.098       .  S
C2394      H2400   1.110       .  S
C2401      C2402   1.416       .  A
C2401      C2406   1.400       .  A
C2401      H2408   1.082       .  S
C2402      C2403   1.428       .  A
C2403      C2410   1.504       .  S
C2403      C2404   1.406       .  A
C2404      C2405   1.398       .  A
C2404      H2409   1.084       .  S
C2405      C2406   1.407       .  A
C2406      C2407   1.508       .  S
C2407      H2411   1.111       .  S
C2407      H2412   1.110       .  S
C2407      H2413   1.110       .  S
C2410      H2414   1.091       .  S
C2410      H2416   1.108       .  S
C2417      C2418   1.419       .  A
C2417      C2422   1.413       .  A
C2417      H2424   1.076       .  S
C2418      C2419   1.430       .  A
C2419      C2420   1.401       .  A
C2420      C2421   1.399       .  A
C2420      H2425   1.085       .  S
C2421      C2422   1.410       .  A
C2422      C2423   1.508       .  S
C2423      H2427   1.111       .  S
C2423      H2428   1.108       .  S
C2423      H2429   1.111       .  S
C2426      H2431   1.101       .  S
C2426      H2432   1.110   1_455  S
C2433      C2434   1.402       .  A
C2433      C2438   1.404       .  A
C2433      H2440   1.084       .  S
C2434      C2435   1.413       .  A
C2435      C2442   1.510       .  S
C2435      C2436   1.403       .  A
C2436      C2437   1.411       .  A
C2436      H2441   1.076       .  S
C2437      C2438   1.431       .  A
C2438      C2439   1.516       .  S
C2439      H2443   1.111       .  S
C2439      H2444   1.103       .  S
C2439      H2445   1.105       .  S
C2442      H2446   1.111       .  S
C2442      H2447   1.109       .  S
C2442      H2448   1.111       .  S
C2449      C2450   1.395       .  A
C2449      C2454   1.401       .  A
C2449      H2456   1.081       .  S
C2450      C2451   1.410       .  A
C2451      C2458   1.506       .  S
C2451      C2452   1.399       .  A
C2452      C2453   1.407       .  A
C2452      H2457   1.084       .  S
C2453      C2454   1.425       .  A
C2454      C2455   1.509       .  S
C2455      H2459   1.111       .  S
C2455      H2460   1.110       .  S
C2455      H2461   1.110       .  S
C2458      H2462   1.103       .  S
C2458      H2463   1.108       .  S
C2458      H2464   1.110       .  S
