geometry optimzed in LAMMPS
_audit_creation_date              2020-11-30 
_audit_creation_method            'lammps2cif' 
_symmetry_space_group_name_H-M    'P1' 
_symmetry_Int_Tables_number       1 
_symmetry_cell_setting            triclinic 
loop_ 
_symmetry_equiv_pos_as_xyz 
  x,y,z 
_cell_length_a                    44.07493114 
_cell_length_b                    43.78503806048655 
_cell_length_c                    43.743171457808664 
_cell_angle_alpha                 89.80272040459786 
_cell_angle_beta                  89.91383441067617 
_cell_angle_gamma                 89.93010379858508 
loop_ 
_atom_site_label 
_atom_site_type_symbol 
_atom_site_fract_x 
_atom_site_fract_y 
_atom_site_fract_z 
_atom_site_charge 
O1          O  0.99832587  0.05003527  0.08757725    -0.75900
O2          O  0.99993088  0.05018833  0.41387438    -0.81800
O3          O  0.04824373  0.08823063  0.99969747    -0.78800
O4          O  0.45081816  0.08742671  0.00146860    -0.77200
O5          O  0.41487436  0.04996871  0.00262766    -0.79000
O6          O  0.08477304  0.05122424  0.99995757    -0.79900
O7          O  0.99988920  0.08715598  0.45070223    -0.81300
O8          O  0.99812827  0.08654643  0.05012918    -0.81600
Eu9        Eu  0.99919674  0.06160970  0.99995304     2.39200
O10         O  0.46929213  0.03043425  0.46909937    -0.89100
O11         O  0.03062640  0.03156954  0.03147636    -0.92700
C12         C  0.99767582  0.07803475  0.07843608     1.02000
C13         C  0.99972159  0.07834836  0.42261759     1.01800
C14         C  0.07619924  0.07945185  0.99972416     1.01800
C15         C  0.42307991  0.07828247  0.00283418     0.99600
H16         H  0.04397204  0.04374471  0.45683176     0.29400
O17         O  0.03132191  0.03103280  0.46950164    -1.01500
H18         H  0.45727617  0.04346539  0.04443756     0.29400
O19         O  0.46979347  0.03096403  0.03148766    -1.04000
O20         O  0.00020817  0.45180683  0.41122895    -0.81200
O21         O  0.00125873  0.44799113  0.08727618    -0.80800
O22         O  0.08879142  0.99836901  0.45252509    -0.79200
O23         O  0.41193805  0.99985381  0.45176037    -0.82500
O24         O  0.41585846  0.99860368  0.05210280    -0.80400
O25         O  0.08580124  0.00168274  0.05109591    -0.79000
O26         O  0.05168511  0.41361321  0.99977287    -0.80600
O27         O  0.44912940  0.41381410  0.00174970    -0.82500
O28         O  0.08819589  0.45062604  0.99935308    -0.79200
O29         O  0.41219865  0.45048873  0.00215715    -0.81900
O30         O  0.05238188  0.99817402  0.41544252    -0.77600
O31         O  0.04960123  0.00186722  0.08842670    -0.77700
O32         O  0.45232420  0.99916851  0.08906606    -0.77300
O33         O  0.44868593  0.99867266  0.41490595    -0.80800
O34         O  0.00093746  0.41450990  0.44811736    -0.80200
O35         O  0.99923567  0.41129980  0.05020396    -0.78600
Eu36       Eu  0.00081955  0.99970311  0.43851765     2.39800
Eu37       Eu  0.00018791  0.00011425  0.06261179     2.39600
Eu38       Eu  0.06125613  0.00041865  0.00057660     2.38400
Eu39       Eu  0.43923175  0.99960420  0.00094369     2.39900
Eu40       Eu  0.00050985  0.43728522  0.00002186     2.39800
O41         O  0.46939684  0.46866944  0.03195979    -0.93000
O42         O  0.03053129  0.46994254  0.46925443    -0.91900
C43         C  0.00080863  0.42358322  0.41990030     1.02200
C44         C  0.00011898  0.41991628  0.07843293     1.00900
C45         C  0.08045597  0.99764752  0.42433364     1.00300
C46         C  0.42056570  0.99926789  0.42363892     1.02300
C47         C  0.42443122  0.99868826  0.08036165     1.01200
C48         C  0.07748003  0.00225483  0.07945318     1.00100
C49         C  0.07977443  0.42241268  0.99951981     1.00100
C50         C  0.42095772  0.42238577  0.00218680     1.02800
H51         H  0.04455061  0.45519230  0.04353255     0.30100
O52         O  0.03174725  0.46790106  0.03094881    -1.05100
H53         H  0.45693838  0.45678459  0.45701168     0.32200
O54         O  0.46974757  0.46917081  0.46962925    -1.07700
O55         O  0.00330303  0.20069328  0.16160754    -0.80300
O56         O  0.99680903  0.19780707  0.33549543    -0.81800
O57         O  0.04970891  0.16159089  0.24955885    -0.78800
O58         O  0.45160093  0.16131121  0.24629109    -0.77200
O59         O  0.41506724  0.19841103  0.24765684    -0.79000
O60         O  0.08609317  0.19885301  0.25144335    -0.79900
O61         O  0.99637906  0.16075880  0.29875265    -0.81300
O62         O  0.00207548  0.16379210  0.19860776    -0.81600
Eu63       Eu  0.99996833  0.18733044  0.24961609     2.39200
O64         O  0.46897749  0.21820417  0.27940850    -0.89100
O65         O  0.03152790  0.21867687  0.21975593    -0.92700
C66         C  0.00321595  0.17260406  0.17039222     1.02000
C67         C  0.99568083  0.16961819  0.32679716     1.01800
C68         C  0.07759211  0.17058486  0.25049616     1.01800
C69         C  0.42367373  0.17014373  0.24672104     0.99600
H70         H  0.04288298  0.20498462  0.29447587     0.29400
O71         O  0.03051189  0.21800054  0.28163109    -1.01500
H72         H  0.45796858  0.20610299  0.20424125     0.29400
O73         O  0.47006272  0.21883200  0.21742588    -1.04000
O74         O  0.00422132  0.29916468  0.33852090    -0.81200
O75         O  0.99829181  0.29869108  0.16298913    -0.80800
O76         O  0.08520009  0.24946460  0.30239290    -0.79200
O77         O  0.41104965  0.24966250  0.29715328    -0.82500
O78         O  0.41581591  0.24911806  0.19714084    -0.80400
O79         O  0.08862976  0.25053579  0.20242299    -0.79000
O80         O  0.04875037  0.33842017  0.25037087    -0.80600
O81         O  0.45104249  0.33806262  0.24781356    -0.82500
O82         O  0.08520817  0.30137443  0.25224174    -0.79200
O83         O  0.41494693  0.30080618  0.24615715    -0.81900
O84         O  0.04869947  0.24775472  0.33946918    -0.77600
O85         O  0.05207528  0.25046182  0.16541390    -0.77700
O86         O  0.45274130  0.24882276  0.16040306    -0.77300
O87         O  0.44738806  0.24904294  0.33433761    -0.80800
O88         O  0.00259662  0.33573310  0.30103661    -0.80200
O89         O  0.99856270  0.33555309  0.19993691    -0.78600
Eu90       Eu  0.99970436  0.24920559  0.31263598     2.39800
Eu91       Eu  0.00083965  0.24942263  0.18844218     2.39600
Eu92       Eu  0.06173763  0.24972597  0.25141446     2.38400
Eu93       Eu  0.43863656  0.24956076  0.24820900     2.39900
Eu94       Eu  0.00013256  0.31149055  0.25054546     2.39800
O95         O  0.46990320  0.28098576  0.21818858    -0.93000
O96         O  0.03055464  0.28042743  0.28188995    -0.91900
C97         C  0.00446374  0.32724338  0.32927824     1.02200
C98         C  0.99761684  0.32664608  0.17186959     1.00900
C99         C  0.07665017  0.24856489  0.33066915     1.00300
C100        C  0.41938455  0.24948408  0.32543345     1.02300
C101        C  0.42470158  0.24868922  0.16898727     1.01200
C102        C  0.08010587  0.25084066  0.17424694     1.00100
C103        C  0.07666302  0.32974280  0.25150606     1.00100
C104        C  0.42324537  0.32918488  0.24632360     1.02800
H105        H  0.04393511  0.29357245  0.20704991     0.30100
O106        O  0.03129296  0.28066698  0.21966874    -1.05100
H107        H  0.45540657  0.29292252  0.29299512     0.32200
O108        O  0.46835367  0.28026104  0.28054026    -1.07700
O109        O  0.33522566  0.50173020  0.19835797    -0.80300
O110        O  0.16493624  0.50010989  0.19822903    -0.81800
O111        O  0.24988236  0.44985447  0.16311189    -0.78800
O112        O  0.24769086  0.04897031  0.16273025    -0.77200
O113        O  0.24822532  0.08553348  0.20005309    -0.79000
O114        O  0.24803882  0.41275221  0.19991507    -0.79900
O115        O  0.20154074  0.49967905  0.16117696    -0.81300
O116        O  0.29893698  0.50258794  0.16115706    -0.81600
Eu117      Eu  0.25006373  0.50048954  0.18784982     2.39200
O118        O  0.22006259  0.03134550  0.21969576    -0.89100
O119        O  0.28108488  0.46906539  0.21835208    -0.92700
C120        C  0.32679531  0.50269443  0.17003703     1.02000
C121        C  0.17365137  0.49957551  0.16991279     1.01800
C122        C  0.24858763  0.42161015  0.17180201     1.01800
C123        C  0.24728951  0.07692186  0.17180071     0.99600
H124        H  0.20612896  0.45671903  0.20601615     0.29400
O125        O  0.21885062  0.46943802  0.21858366    -1.01500
H126        H  0.29344645  0.04407572  0.20664520     0.29400
O127        O  0.28095480  0.03118115  0.21952243    -1.04000
O128        O  0.16300785  0.49875264  0.29969680    -0.81200
O129        O  0.33844411  0.50160306  0.29893516    -0.80800
O130        O  0.20081563  0.41218209  0.25177423    -0.79200
O131        O  0.20142403  0.08883489  0.25500649    -0.82500
O132        O  0.29982481  0.08815371  0.25173033    -0.80400
O133        O  0.29839168  0.41139891  0.24856320    -0.79000
O134        O  0.24675013  0.44986231  0.33734481    -0.80600
O135        O  0.25154290  0.04869502  0.33956024    -0.82500
O136        O  0.24707805  0.41364675  0.29979490    -0.79200
O137        O  0.25238697  0.08574055  0.30271487    -0.81900
O138        O  0.16460194  0.44953365  0.25196703    -0.77600
O139        O  0.33488030  0.44835184  0.24834855    -0.77700
O140        O  0.33610843  0.05078068  0.25050449    -0.77300
O141        O  0.16510637  0.05156975  0.25297615    -0.80800
O142        O  0.20000240  0.49823496  0.33632199    -0.80200
O143        O  0.30176863  0.49960436  0.33600724    -0.78600
Eu144      Eu  0.18841688  0.50072784  0.24969574     2.39800
Eu145      Eu  0.31176101  0.49998468  0.24952731     2.39600
Eu146      Eu  0.24980504  0.43838304  0.24957769     2.38400
Eu147      Eu  0.25047304  0.06214714  0.25138917     2.39900
Eu148      Eu  0.25062434  0.49963429  0.31213512     2.39800
O149        O  0.28137098  0.03047905  0.28146354    -0.93000
O150        O  0.21974076  0.46991304  0.28030988    -0.91900
C151        C  0.17189189  0.49781680  0.32779744     1.02200
C152        C  0.32983388  0.50097461  0.32716674     1.00900
C153        C  0.17298527  0.42114632  0.25267313     1.00300
C154        C  0.17355571  0.07981079  0.25483239     1.02300
C155        C  0.32769959  0.07912766  0.25129341     1.01200
C156        C  0.32630514  0.42003064  0.24805967     1.00100
C157        C  0.24573109  0.42201304  0.32802006     1.00100
C158        C  0.25241565  0.07689539  0.33099508     1.02800
H159        H  0.29389180  0.45548799  0.29356144     0.30100
O160        O  0.28133892  0.46845119  0.28095564    -1.05100
H161        H  0.20709935  0.04329506  0.29534084     0.32200
O162        O  0.21960237  0.03091764  0.28216926    -1.07700
O163        O  0.20077262  0.16235978  0.49951806    -0.80300
O164        O  0.19803619  0.33673374  0.49962749    -0.81800
O165        O  0.16299906  0.24801150  0.04983538    -0.78800
O166        O  0.16511306  0.25155572  0.44893260    -0.77200
O167        O  0.20162439  0.25130847  0.41180773    -0.79000
O168        O  0.19954558  0.24913917  0.08682518    -0.79900
O169        O  0.16159024  0.29952664  0.50064543    -0.81300
O170        O  0.16427546  0.19946091  0.49913624    -0.81600
Eu171      Eu  0.18816586  0.25032591  0.50016767     2.39200
O172        O  0.21898292  0.28137810  0.46902367    -0.89100
O173        O  0.21932641  0.21790825  0.03210146    -0.92700
C174        C  0.17282326  0.17118968  0.49876826     1.02000
C175        C  0.17004648  0.32770878  0.50034496     1.01800
C176        C  0.17153562  0.24841051  0.07806571     1.01800
C177        C  0.17369959  0.25170902  0.42064054     0.99600
H178        H  0.20669588  0.29311160  0.04349608     0.29400
O179        O  0.21950288  0.28019203  0.03095073    -1.01500
H180        H  0.20679024  0.20675346  0.45644394     0.29400
O181        O  0.21923944  0.21956125  0.46937492    -1.04000
O182        O  0.29976351  0.33767514  0.49737326    -0.81200
O183        O  0.29905416  0.16293338  0.50025824    -0.80800
O184        O  0.25133111  0.30049254  0.08658958    -0.79200
O185        O  0.24962233  0.29955814  0.41195805    -0.82500
O186        O  0.25150468  0.20024103  0.41471071    -0.80400
O187        O  0.25100883  0.20026991  0.08900509    -0.79000
O188        O  0.33612988  0.24906450  0.05131618    -0.80600
O189        O  0.33781785  0.25020137  0.45121931    -0.82500
O190        O  0.29965508  0.24994604  0.08847093    -0.79200
O191        O  0.30103462  0.25018062  0.41454916    -0.81900
O192        O  0.25250278  0.33719016  0.04926620    -0.77600
O193        O  0.24970649  0.16326445  0.05221612    -0.77700
O194        O  0.25051978  0.16338154  0.45161239    -0.77300
O195        O  0.24730073  0.33699644  0.44824959    -0.80800
O196        O  0.33679022  0.30100298  0.49831056    -0.80200
O197        O  0.33535652  0.20003645  0.50006644    -0.78600
Eu198      Eu  0.24924599  0.31326703  0.49933005     2.39800
Eu199      Eu  0.24988364  0.18913373  0.50114594     2.39600
Eu200      Eu  0.25009927  0.24962686  0.06261886     2.38400
Eu201      Eu  0.25049688  0.25052180  0.43863418     2.39900
Eu202      Eu  0.31147709  0.25112942  0.50071947     2.39800
O203        O  0.28107993  0.21973049  0.46995876    -0.93000
O204        O  0.28135728  0.27977132  0.03125939    -0.91900
C205        C  0.32788821  0.32906735  0.49709139     1.02200
C206        C  0.32695749  0.17170435  0.49988772     1.00900
C207        C  0.25232267  0.32863014  0.07752504     1.00300
C208        C  0.24807937  0.32770805  0.42023648     1.02300
C209        C  0.25103145  0.17213288  0.42343567     1.01200
C210        C  0.25050527  0.17218566  0.08032699     1.00100
C211        C  0.32758318  0.24964433  0.07953405     1.00100
C212        C  0.32911431  0.24990146  0.42308128     1.02800
H213        H  0.29342320  0.20518036  0.04532592     0.30100
O214        O  0.28088861  0.21788338  0.03221921    -1.05100
H215        H  0.29338775  0.29469158  0.45594006     0.32200
O216        O  0.28070816  0.28201609  0.46919635    -1.07700
C217        C  0.26375136  0.12771939  0.15391078    -0.12400
C218        C  0.24707828  0.10114474  0.14826892     0.04600
C219        C  0.23155533  0.09835037  0.12018958    -0.07700
C220        C  0.23339964  0.12165276  0.09843163    -0.08400
C221        C  0.25001561  0.14824690  0.10411635    -0.03000
C222        C  0.26529034  0.15120316  0.13231776     0.03800
N223        N  0.28295741  0.17749359  0.13946198     0.66300
H224        H  0.27613073  0.13019773  0.17515836     0.15200
H225        H  0.22116433  0.11909856  0.07710050     0.14900
N226        N  0.21343483  0.07238825  0.11322367     0.74000
O227        O  0.27126094  0.19774403  0.15621049    -0.39400
O228        O  0.31149399  0.17557630  0.13796366    -0.39300
O229        O  0.18510779  0.07411532  0.11717960    -0.40100
O230        O  0.22363003  0.05369647  0.09391668    -0.40100
C231        C  0.23734820  0.34653465  0.12919514    -0.12400
C232        C  0.25208990  0.35265889  0.10141956     0.04600
C233        C  0.26518264  0.38181867  0.09698699    -0.07700
C234        C  0.26324728  0.40388841  0.11997158    -0.08400
C235        C  0.24854131  0.39775477  0.14775021    -0.03000
C236        C  0.23520281  0.36866793  0.15209538     0.03800
N237        N  0.21803760  0.36145660  0.17884867     0.66300
H238        H  0.22656570  0.32459499  0.13295291     0.15200
H239        H  0.27409307  0.42580044  0.11624321     0.14900
N240        N  0.28225493  0.38902052  0.07021458     0.74000
O241        O  0.18962126  0.36497665  0.17815854    -0.39400
O242        O  0.22929982  0.34327260  0.19818023    -0.39300
O243        O  0.27029931  0.40576026  0.05000426    -0.40100
O244        O  0.31078932  0.38726049  0.07156668    -0.40100
C245        C  0.26077536  0.37085555  0.34593344    -0.12400
C246        C  0.24423852  0.39762067  0.35123598     0.04600
C247        C  0.22787457  0.40066281  0.37884586    -0.07700
C248        C  0.22933140  0.37749042  0.40086768    -0.08400
C249        C  0.24671869  0.35110422  0.39592304    -0.03000
C250        C  0.26228731  0.34774236  0.36786960     0.03800
N251        N  0.28144972  0.32212438  0.36189498     0.66300
H252        H  0.27364653  0.36829671  0.32499505     0.15200
H253        H  0.21656833  0.38009410  0.42190873     0.14900
N254        N  0.20888261  0.42648288  0.38460938     0.74000
O255        O  0.27216209  0.30166727  0.34395483    -0.39400
O256        O  0.30960411  0.32486117  0.36628717    -0.39300
O257        O  0.18078101  0.42423511  0.37961151    -0.40100
O258        O  0.21815614  0.44691001  0.40258289    -0.40100
C259        C  0.24480856  0.13112315  0.34696930    -0.12400
C260        C  0.25280777  0.10100650  0.35506758     0.04600
C261        C  0.26027953  0.09488416  0.38604210    -0.07700
C262        C  0.25930363  0.11831497  0.40761888    -0.08400
C263        C  0.25121503  0.14817508  0.39951828    -0.03000
C264        C  0.24367053  0.15445863  0.36876414     0.03800
N265        N  0.23364662  0.18412936  0.35948670     0.66300
H266        H  0.23874634  0.13661554  0.32361485     0.15200
H267        H  0.26507194  0.11293037  0.43104339     0.14900
N268        N  0.26950502  0.06532166  0.39636776     0.74000
O269        O  0.25283830  0.20337556  0.35008556    -0.39400
O270        O  0.20741092  0.19302494  0.36692634    -0.39300
O271        O  0.29738417  0.06054115  0.40091803    -0.40100
O272        O  0.25040292  0.04900405  0.41039269    -0.40100
C273        C  0.37160696  0.15378232  0.26077425    -0.12400
C274        C  0.39950424  0.14645902  0.24714982     0.04600
C275        C  0.40343418  0.11676232  0.23506878    -0.07700
C276        C  0.37985618  0.09543610  0.23702893    -0.08400
C277        C  0.35197032  0.10274705  0.25073230    -0.03000
C278        C  0.34803082  0.13249662  0.26272890     0.03800
N279        N  0.32092588  0.14140548  0.27826441     0.66300
H280        H  0.36812180  0.17616457  0.27071203     0.15200
H281        H  0.38329977  0.07307077  0.22704292     0.14900
N282        N  0.43034697  0.10811874  0.21909879     0.74000
O283        O  0.31973720  0.13822907  0.30692388    -0.39400
O284        O  0.30366429  0.16069411  0.26565525    -0.39300
O285        O  0.44887894  0.09036960  0.23212549    -0.40100
O286        O  0.43026523  0.10954229  0.19028989    -0.40100
C287        C  0.38063753  0.40549356  0.24278438    -0.12400
C288        C  0.35045712  0.39609668  0.24691128     0.04600
C289        C  0.34463693  0.36433052  0.24976356    -0.07700
C290        C  0.36863212  0.34342663  0.24878800    -0.08400
C291        C  0.39887825  0.35289396  0.24541482    -0.03000
C292        C  0.40464721  0.38460658  0.24211415     0.03800
N293        N  0.43453173  0.39652693  0.23800023     0.66300
H294        H  0.38599633  0.42950209  0.24011046     0.15200
H295        H  0.36328357  0.31940476  0.25127781     0.14900
N296        N  0.31482800  0.35241648  0.25445891     0.74000
O297        O  0.44295775  0.40373163  0.21134989    -0.39400
O298        O  0.44736174  0.40902977  0.26048506    -0.39300
O299        O  0.30118229  0.34073096  0.23202312    -0.40100
O300        O  0.30734262  0.34422710  0.28110274    -0.40100
C301        C  0.12342393  0.09786533  0.23727869    -0.12400
C302        C  0.14917282  0.10321032  0.25524955     0.04600
C303        C  0.15094699  0.13081402  0.27191804    -0.07700
C304        C  0.12731854  0.15220597  0.26995324    -0.08400
C305        C  0.10176069  0.14696365  0.25159104    -0.03000
C306        C  0.10002542  0.11933942  0.23506157     0.03800
N307        N  0.07599592  0.11346416  0.21404422     0.66300
H308        H  0.12185702  0.07718439  0.22380585     0.15200
H309        H  0.12887445  0.17301508  0.28322359     0.14900
N310        N  0.17580105  0.13730499  0.29177759     0.74000
O311        O  0.08021324  0.11970446  0.18617250    -0.39400
O312        O  0.05632486  0.09371916  0.22104511    -0.39300
O313        O  0.19484665  0.15722537  0.28358609    -0.40100
O314        O  0.17295214  0.13143937  0.31990558    -0.40100
C315        C  0.13031341  0.34522792  0.26073437    -0.12400
C316        C  0.10074536  0.35377720  0.25234418     0.04600
C317        C  0.09529435  0.38500006  0.24538303    -0.07700
C318        C  0.11910008  0.40606793  0.24595767    -0.08400
C319        C  0.14870574  0.39743530  0.25381894    -0.03000
C320        C  0.15403863  0.36647549  0.26184204     0.03800
N321        N  0.18288899  0.35605756  0.27246039     0.66300
H322        H  0.13519614  0.32178456  0.26707233     0.15200
H323        H  0.11416948  0.42952429  0.23968878     0.14900
N324        N  0.06615715  0.39610683  0.23654329     0.74000
O325        O  0.18775530  0.35566207  0.30087999    -0.39400
O326        O  0.19821736  0.33856642  0.25555174    -0.39300
O327        O  0.05068273  0.41062687  0.25597256    -0.40100
O328        O  0.06170778  0.40147548  0.20858725    -0.40100
C329        C  0.37177880  0.25987411  0.15360425    -0.12400
C330        C  0.40050511  0.24858517  0.14540040     0.04600
C331        C  0.40477596  0.23743981  0.11537725    -0.07700
C332        C  0.38066163  0.23804633  0.09463662    -0.08400
C333        C  0.35195816  0.24940789  0.10289293    -0.03000
C334        C  0.34766643  0.26029611  0.13294995     0.03800
N335        N  0.31936386  0.27265075  0.14298183     0.66300
H336        H  0.36786989  0.26885922  0.17633274     0.15200
H337        H  0.38447374  0.22903439  0.07189854     0.14900
N338        N  0.43284114  0.22432642  0.10558105     0.74000
O339        O  0.30240202  0.25634182  0.15956846    -0.39400
O340        O  0.31614303  0.30128109  0.14359347    -0.39300
O341        O  0.43550919  0.19562525  0.10584009    -0.40100
O342        O  0.44974730  0.23970073  0.08805312    -0.40100
C343        C  0.09610180  0.24105262  0.12072711    -0.12400
C344        C  0.10390367  0.25111448  0.15006691     0.04600
C345        C  0.13415080  0.26059065  0.15532892    -0.07700
C346        C  0.15548283  0.25951268  0.13158277    -0.08400
C347        C  0.14778287  0.24874761  0.10237247    -0.03000
C348        C  0.11756165  0.23919948  0.09724440     0.03800
N349        N  0.10843551  0.22556732  0.06914966     0.66300
H350        H  0.07313855  0.23381331  0.11597611     0.15200
H351        H  0.17828824  0.26751057  0.13614074     0.14900
N352        N  0.14363677  0.27244932  0.18415289     0.74000
O353        O  0.11113950  0.19702927  0.06640427    -0.39400
O354        O  0.08966230  0.23951812  0.05239437    -0.39300
O355        O  0.15975517  0.25588593  0.20133956    -0.40100
O356        O  0.14396096  0.30101401  0.18787985    -0.40100
C357        C  0.12033219  0.24175257  0.40587774    -0.12400
C358        C  0.14939534  0.25150577  0.39708231     0.04600
C359        C  0.15411804  0.26024163  0.36625702    -0.07700
C360        C  0.13011371  0.25892744  0.34541977    -0.08400
C361        C  0.10100837  0.24912936  0.35423053    -0.03000
C362        C  0.09634018  0.24049730  0.38508931     0.03800
N363        N  0.06809715  0.22864916  0.39577169     0.66300
H364        H  0.11607716  0.23437266  0.42916954     0.15200
H365        H  0.13440218  0.26619419  0.32210229     0.14900
N366        N  0.18258104  0.27172171  0.35562655     0.74000
O367        O  0.06579859  0.20014490  0.39914461    -0.39400
O368        O  0.05114041  0.24573301  0.41147630    -0.39300
O369        O  0.19875956  0.25492777  0.33879194    -0.40100
O370        O  0.18634856  0.30026616  0.35445554    -0.40100
C371        C  0.40432315  0.24246446  0.37986769    -0.12400
C372        C  0.39560409  0.24964332  0.34979618     0.04600
C373        C  0.36467940  0.25661504  0.34428385    -0.07700
C374        C  0.34385731  0.25654294  0.36847446    -0.08400
C375        C  0.35264077  0.24949747  0.39854425    -0.03000
C376        C  0.38345734  0.24215575  0.40398961     0.03800
N377        N  0.39413541  0.23300268  0.43343583     0.66300
H378        H  0.42763648  0.23640117  0.38489519     0.15200
H379        H  0.32045929  0.26219147  0.36343851     0.14900
N380        N  0.35365269  0.26424627  0.31454609     0.74000
O381        O  0.39440838  0.20491777  0.43997126    -0.39400
O382        O  0.41176459  0.25060607  0.44764008    -0.39300
O383        O  0.33790818  0.24481133  0.30043694    -0.40100
O384        O  0.35098633  0.29207840  0.30747745    -0.40100
C385        C  0.34422613  0.38231265  0.50748996    -0.12400
C386        C  0.35390078  0.34984372  0.99939553     0.04600
C387        C  0.38467374  0.34457634  0.99152564    -0.07700
C388        C  0.40572125  0.36847103  0.99287133    -0.08400
C389        C  0.39727825  0.39802864  0.00193758    -0.03000
C390        C  0.36603524  0.40538801  0.50960517     0.03800
N391        N  0.35697245  0.43391369  0.52252979     0.66300
H392        H  0.32139696  0.38715278  0.51519219     0.15200
H393        H  0.42894425  0.36372731  0.98621359     0.14900
N394        N  0.39511380  0.31564082  0.98080565     0.74000
O395        O  0.34082113  0.45171443  0.50669776    -0.39400
O396        O  0.35314330  0.43707254  0.04802976    -0.39300
O397        O  0.39002778  0.31999080  0.44140946    -0.40100
O398        O  0.40929281  0.29847946  0.99910749    -0.40100
C399        C  0.36933056  0.09521159  0.49650564    -0.12400
C400        C  0.39867370  0.10160782  0.00454391     0.04600
C401        C  0.40442336  0.13289985  0.01002556    -0.07700
C402        C  0.38060629  0.15391274  0.00917115    -0.08400
C403        C  0.35048523  0.14461187  0.00450767    -0.03000
C404        C  0.34536874  0.11617627  0.49686264     0.03800
N405        N  0.31529821  0.10428822  0.49492654     0.66300
H406        H  0.36378893  0.07121411  0.49432049     0.15200
H407        H  0.38590859  0.17776057  0.01296640     0.14900
N408        N  0.43378509  0.14380632  0.01839004     0.74000
O409        O  0.30569237  0.09571504  0.46920831    -0.39400
O410        O  0.30313540  0.08973086  0.02447143    -0.39300
O411        O  0.44806767  0.16125655  0.48337311    -0.40100
O412        O  0.43979828  0.14689033  0.04641360    -0.40100
C413        C  0.15194842  0.37921189  0.48512204    -0.12400
C414        C  0.14759459  0.35012973  0.99802275     0.04600
C415        C  0.11641753  0.34410092  0.99263090    -0.07700
C416        C  0.09523741  0.36797991  0.99293294    -0.08400
C417        C  0.10377383  0.39820522  0.99916088    -0.03000
C418        C  0.13021641  0.40248595  0.48388227     0.03800
N419        N  0.13751921  0.42960010  0.46731909     0.66300
H420        H  0.17349845  0.38271447  0.47365576     0.15200
H421        H  0.07171197  0.36252375  0.98833405     0.14900
N422        N  0.10534577  0.31399756  0.98704671     0.74000
O423        O  0.15600262  0.44808325  0.47909630    -0.39400
O424        O  0.13380819  0.42993291  0.43871547    -0.39300
O425        O  0.09149318  0.30027854  0.00829601    -0.40100
O426        O  0.10070198  0.30590647  0.95979553    -0.40100
C427        C  0.11938854  0.15484451  0.00524194    -0.12400
C428        C  0.14905374  0.14577487  0.99794749     0.04600
C429        C  0.15285984  0.11772966  0.48672165    -0.07700
C430        C  0.12921581  0.09640101  0.48827483    -0.08400
C431        C  0.10052404  0.10300187  0.99895914    -0.03000
C432        C  0.09548228  0.13397123  0.00643101     0.03800
N433        N  0.06721264  0.14441163  0.01829265     0.66300
H434        H  0.11460846  0.17836496  0.01106396     0.15200
H435        H  0.13313076  0.07378506  0.47923074     0.14900
N436        N  0.18026124  0.10897798  0.47161995     0.74000
O437        O  0.06477679  0.14679521  0.04688782    -0.39400
O438        O  0.05087531  0.16103708  0.50835306    -0.39300
O439        O  0.19813632  0.08816909  0.00200485    -0.40100
O440        O  0.18193178  0.11225056  0.44298881    -0.40100
C441        C  0.34863700  0.48370960  0.37801055    -0.12400
C442        C  0.35332363  0.00174246  0.35148882     0.04600
C443        C  0.38443587  0.00733218  0.34549061    -0.07700
C444        C  0.40554274  0.00613292  0.36928422    -0.08400
C445        C  0.39674823  0.99983435  0.39950137    -0.03000
C446        C  0.37041040  0.48208934  0.40132207     0.03800
N447        N  0.36393654  0.46347867  0.42735715     0.66300
H448        H  0.32767824  0.47104534  0.38072551     0.15200
H449        H  0.42912531  0.01060648  0.36386294     0.14900
N450        N  0.39531842  0.01502234  0.31567914     0.74000
O451        O  0.34208975  0.00934580  0.45069753    -0.39400
O452        O  0.36643798  0.43486687  0.42492414    -0.39300
O453        O  0.40229856  0.04243390  0.31011962    -0.40100
O454        O  0.40454090  0.52673359  0.30176201    -0.40100
C455        C  0.09583138  0.99097698  0.36989629    -0.12400
C456        C  0.10457639  0.99598844  0.40032414     0.04600
C457        C  0.13461325  0.50834125  0.40524323    -0.07700
C458        C  0.15609385  0.50703410  0.38166198    -0.08400
C459        C  0.14826699  0.99449864  0.35227339    -0.03000
C460        C  0.11705379  0.98990152  0.34611057     0.03800
N461        N  0.10612149  0.98382623  0.31601999     0.66300
H462        H  0.07213132  0.98786129  0.36422100     0.15200
H463        H  0.17895830  0.51477090  0.38638957     0.14900
N464        N  0.14413826  0.52022087  0.43405598     0.74000
O465        O  0.10833418  0.44636001  0.31505129    -0.39400
O466        O  0.09395402  0.00527141  0.30107837    -0.39300
O467        O  0.15993664  0.50347691  0.45132397    -0.40100
O468        O  0.15384306  0.03116099  0.44446271    -0.40100
C469        C  0.12077720  0.51003218  0.15363495    -0.12400
C470        C  0.15008152  0.00161023  0.14637627     0.04600
C471        C  0.15540083  0.99392540  0.11533087    -0.07700
C472        C  0.13161299  0.99528505  0.09419707    -0.08400
C473        C  0.10191445  0.00290917  0.10302454    -0.03000
C474        C  0.09729717  0.51082190  0.13223194     0.03800
N475        N  0.06876282  0.52309639  0.14161510     0.66300
H476        H  0.11619294  0.51839138  0.17647462     0.15200
H477        H  0.13647308  0.98937124  0.07068131     0.14900
N478        N  0.18410865  0.98292823  0.10478672     0.74000
O479        O  0.05157461  0.50687491  0.15804536    -0.39400
O480        O  0.06065152  0.04605117  0.14857745    -0.39300
O481        O  0.18688701  0.44814830  0.10660271    -0.40100
O482        O  0.19927071  0.99940704  0.08670809    -0.40100
C483        C  0.37101172  0.00848115  0.09541651    -0.12400
C484        C  0.40022735  0.99905575  0.10408142     0.04600
C485        C  0.40455711  0.49378833  0.13462261    -0.07700
C486        C  0.38062326  0.49507083  0.15548807    -0.08400
C487        C  0.35198645  0.00109155  0.14725377    -0.03000
C488        C  0.34713217  0.00982056  0.11644059     0.03800
N489        N  0.31869173  0.02151011  0.10602310     0.66300
H490        H  0.36658201  0.01560353  0.07208797     0.15200
H491        H  0.38524566  0.48869311  0.17898497     0.14900
N492        N  0.43339961  0.48377428  0.14563595     0.74000
O493        O  0.31498587  0.05008779  0.10519283    -0.39400
O494        O  0.30116503  0.50150903  0.09010167    -0.39300
O495        O  0.45001065  0.99863260  0.16145099    -0.40100
O496        O  0.43868952  0.45547401  0.14679074    -0.40100
C497        C  0.48550427  0.09352054  0.36809193    -0.12400
C498        C  0.99852525  0.10206570  0.39852308     0.04600
C499        C  0.01073504  0.13157345  0.40260312    -0.07700
C500        C  0.00834392  0.15315315  0.37922659    -0.08400
C501        C  0.99497889  0.14601906  0.35111332    -0.03000
C502        C  0.48436392  0.11527779  0.34455386     0.03800
N503        N  0.47168601  0.10641834  0.31589232     0.66300
H504        H  0.47675290  0.07082696  0.36372680     0.15200
H505        H  0.01786433  0.17556217  0.38287729     0.14900
N506        N  0.02721000  0.13972241  0.42945926     0.74000
O507        O  0.48800319  0.09156673  0.29744168    -0.39400
O508        O  0.44320582  0.10502590  0.31332874    -0.39300
O509        O  0.05576214  0.13749470  0.42913063    -0.40100
O510        O  0.01486850  0.15732774  0.44857930    -0.40100
C511        C  0.98632982  0.37733005  0.34766862    -0.12400
C512        C  0.00519601  0.35195010  0.35237884     0.04600
C513        C  0.51134071  0.34610253  0.38261136    -0.07700
C514        C  0.51036616  0.36977677  0.40390820    -0.08400
C515        C  0.00220187  0.39968320  0.39596072    -0.03000
C516        C  0.98480418  0.40112754  0.36887074     0.03800
N517        N  0.96449216  0.42583524  0.36282322     0.66300
H518        H  0.97210363  0.37852333  0.32749410     0.15200
H519        H  0.52040328  0.36591712  0.42620403     0.14900
N520        N  0.52577322  0.31829154  0.39137444     0.74000
O521        O  0.97331736  0.44717505  0.34552489    -0.39400
O522        O  0.93637178  0.42136926  0.36592375    -0.39300
O523        O  0.55435574  0.31682167  0.39029754    -0.40100
O524        O  0.51156476  0.30025707  0.40878418    -0.40100
C525        C  0.01485343  0.37601983  0.15193277    -0.12400
C526        C  0.99669268  0.35037401  0.14812170     0.04600
C527        C  0.47769513  0.35193794  0.12548767    -0.07700
C528        C  0.47847977  0.37477826  0.10297163    -0.08400
C529        C  0.99944438  0.39592250  0.10242656    -0.03000
C530        C  0.01673701  0.39853742  0.12950031     0.03800
N531        N  0.03809935  0.42257910  0.13394052     0.66300
H532        H  0.02873819  0.37789963  0.17207452     0.15200
H533        H  0.46157326  0.37472661  0.08500098     0.14900
N534        N  0.45464041  0.32897890  0.12472734     0.74000
O535        O  0.03151300  0.44346342  0.15260654    -0.39400
O536        O  0.06571930  0.41716860  0.12851034    -0.39300
O537        O  0.43461908  0.32851506  0.14539588    -0.40100
O538        O  0.45894814  0.30534944  0.10887565    -0.40100
C539        C  0.01001058  0.13070106  0.09455212    -0.12400
C540        C  0.99745803  0.10228231  0.10195450     0.04600
C541        C  0.49305182  0.09638108  0.13320315    -0.07700
C542        C  0.49519296  0.11993823  0.15445905    -0.08400
C543        C  0.00284650  0.14860950  0.14660423    -0.03000
C544        C  0.01364200  0.15343987  0.11654745     0.03800
N545        N  0.03103205  0.17974071  0.10852814     0.66300
H546        H  0.01787523  0.13503222  0.07161382     0.15200
H547        H  0.48821056  0.11528179  0.17775086     0.14900
N548        N  0.48075968  0.06791228  0.14329646     0.74000
O549        O  0.05954879  0.17787086  0.11022086    -0.39400
O550        O  0.01944820  0.19954373  0.09105552    -0.39300
O551        O  0.49589727  0.05186836  0.16182787    -0.40100
O552        O  0.45244366  0.06401663  0.14176076    -0.40100
O553        O  0.99801245  0.04918575  0.58836950    -0.75900
O554        O  0.99873518  0.04931589  0.91287685    -0.81800
O555        O  0.04863007  0.08869535  0.50140165    -0.78800
O556        O  0.45177594  0.08898652  0.49926033    -0.77200
O557        O  0.41523925  0.05214522  0.49998103    -0.79000
O558        O  0.08531314  0.05179137  0.50081066    -0.79900
O559        O  0.99854802  0.08631598  0.94959620    -0.81300
O560        O  0.99769741  0.08571672  0.55103933    -0.81600
Eu561      Eu  0.99994549  0.06160021  0.50056809     2.39200
O562        O  0.46931840  0.03071413  0.96912476    -0.89100
O563        O  0.03110053  0.03139386  0.53222649    -0.92700
C564        C  0.99716960  0.07720941  0.57933909     1.02000
C565        C  0.99864175  0.07747407  0.92151106     1.01800
C566        C  0.07661059  0.08006519  0.50111260     1.01800
C567        C  0.42383098  0.08045790  0.49948617     0.99600
H568        H  0.04267819  0.04350236  0.95609779     0.29400
O569        O  0.03020339  0.03080176  0.96894752    -1.01500
H570        H  0.45631653  0.04407956  0.54427991     0.29400
O571        O  0.46892183  0.03133479  0.53165486    -1.04000
O572        O  0.00189051  0.45003917  0.91212421    -0.81200
O573        O  0.99874907  0.44924787  0.58695368    -0.80800
O574        O  0.08737445  0.99982611  0.95103574    -0.79200
O575        O  0.41266359  0.99932423  0.95153518    -0.82500
O576        O  0.41452354  0.99879944  0.55148524    -0.80400
O577        O  0.08557724  0.00156628  0.55203356    -0.79000
O578        O  0.05000420  0.41387439  0.49902172    -0.80600
O579        O  0.44841829  0.41409231  0.50013200    -0.82500
O580        O  0.08674169  0.45079043  0.49877171    -0.79200
O581        O  0.41223621  0.45156895  0.50115984    -0.81900
O582        O  0.05055241  0.99905260  0.91438639    -0.77600
O583        O  0.04915457  0.00151400  0.58912339    -0.77700
O584        O  0.45088261  0.99821856  0.58856641    -0.77300
O585        O  0.44900419  0.00028416  0.91409904    -0.80800
O586        O  0.00166384  0.41320664  0.94941497    -0.80200
O587        O  0.99781716  0.41242584  0.54999524    -0.78600
Eu588      Eu  0.99935571  0.99947437  0.93838127     2.39800
Eu589      Eu  0.00032377  0.99961112  0.56269850     2.39600
Eu590      Eu  0.06186176  0.00037829  0.50136554     2.38400
Eu591      Eu  0.43825273  0.00039090  0.50081581     2.39900
Eu592      Eu  0.99948430  0.43823694  0.49942322     2.39800
O593        O  0.46933059  0.46800869  0.53112488    -0.93000
O594        O  0.03072470  0.46914473  0.96920046    -0.91900
C595        C  0.00220821  0.42189083  0.92114885     1.02200
C596        C  0.99806051  0.42115937  0.57826068     1.00900
C597        C  0.07874715  0.99934165  0.92289595     1.00300
C598        C  0.42101566  0.99988724  0.92324439     1.02300
C599        C  0.42305064  0.99798901  0.57970858     1.01200
C600        C  0.07702935  0.00196567  0.58028712     1.00100
C601        C  0.07802444  0.42266482  0.49844903     1.00100
C602        C  0.42045458  0.42335270  0.50065153     1.02800
H603        H  0.04293993  0.45572785  0.54373052     0.30100
O604        O  0.03037887  0.46861346  0.53107416    -1.05100
H605        H  0.45668286  0.45543536  0.95722004     0.32200
O606        O  0.46920497  0.46826589  0.96971010    -1.07700
O607        O  0.00097332  0.20166928  0.66137470    -0.80300
O608        O  0.99758844  0.19727712  0.83511566    -0.81800
O609        O  0.04912460  0.16176164  0.75106611    -0.78800
O610        O  0.45208184  0.16280481  0.74773747    -0.77200
O611        O  0.41532307  0.19970075  0.74960415    -0.79000
O612        O  0.08532151  0.19915649  0.75115922    -0.79900
O613        O  0.99802305  0.16083531  0.79788898    -0.81300
O614        O  0.00059573  0.16467484  0.69819430    -0.81600
Eu615      Eu  0.00005119  0.18798739  0.74916173     2.39200
O616        O  0.46982157  0.21919381  0.77996633    -0.89100
O617        O  0.03167850  0.21929832  0.71909239    -0.92700
C618        C  0.00069829  0.17353965  0.66999003     1.02000
C619        C  0.99724249  0.16922456  0.82603794     1.01800
C620        C  0.07693494  0.17080275  0.75140224     1.01800
C621        C  0.42413116  0.17149054  0.74860506     0.99600
H622        H  0.04286042  0.20541514  0.79391610     0.29400
O623        O  0.03047113  0.21842213  0.78110185    -1.01500
H624        H  0.45752411  0.20749110  0.70539087     0.29400
O625        O  0.46992172  0.22014886  0.71836439    -1.04000
O626        O  0.99820887  0.29736385  0.83937266    -0.81200
O627        O  0.99809986  0.30013325  0.66346936    -0.80800
O628        O  0.08496625  0.24913084  0.80238268    -0.79200
O629        O  0.41304071  0.25030948  0.79945384    -0.82500
O630        O  0.41479471  0.25079616  0.69893384    -0.80400
O631        O  0.08833246  0.25320744  0.70190534    -0.79000
O632        O  0.04839615  0.33866966  0.75096315    -0.80600
O633        O  0.45147585  0.33982907  0.75016612    -0.82500
O634        O  0.08502172  0.30176722  0.75216599    -0.79200
O635        O  0.41536020  0.30253456  0.74876726    -0.81900
O636        O  0.04839714  0.24734348  0.83941610    -0.77600
O637        O  0.05167349  0.25209412  0.66486272    -0.77700
O638        O  0.45141797  0.25019473  0.66186657    -0.77300
O639        O  0.44973306  0.24899637  0.83631267    -0.80800
O640        O  0.99900147  0.33444465  0.80246218    -0.80200
O641        O  0.99766216  0.33668065  0.70068775    -0.78600
Eu642      Eu  0.99921202  0.24854942  0.81227390     2.39800
Eu643      Eu  0.00058422  0.25040612  0.68829304     2.39600
Eu644      Eu  0.06156886  0.25036283  0.75120921     2.38400
Eu645      Eu  0.43887121  0.25089227  0.74959853     2.39900
Eu646      Eu  0.99965940  0.31167009  0.75108632     2.39800
O647        O  0.46989722  0.28212739  0.71923572    -0.93000
O648        O  0.03037055  0.28067227  0.78240739    -0.91900
C649        C  0.99843106  0.32550820  0.83066384     1.02200
C650        C  0.99697159  0.32805084  0.67248820     1.00900
C651        C  0.07642374  0.24786780  0.83068668     1.00300
C652        C  0.42170876  0.24958837  0.82762806     1.02300
C653        C  0.42339666  0.25022638  0.67066885     1.01200
C654        C  0.07967181  0.25336049  0.67372994     1.00100
C655        C  0.07637087  0.33006976  0.75165615     1.00100
C656        C  0.42369536  0.33094300  0.74900329     1.02800
H657        H  0.04329966  0.29449938  0.70741113     0.30100
O658        O  0.03081185  0.28133702  0.71991029    -1.05100
H659        H  0.45630284  0.29360253  0.79456979     0.32200
O660        O  0.46907604  0.28113905  0.78175381    -1.07700
O661        O  0.33563000  0.50122940  0.69887535    -0.80300
O662        O  0.16454156  0.49974372  0.69784487    -0.81800
O663        O  0.24948320  0.44910982  0.66468867    -0.78800
O664        O  0.24968877  0.05032296  0.66161706    -0.77200
O665        O  0.25096408  0.08716112  0.69854046    -0.79000
O666        O  0.24799448  0.41207293  0.70164401    -0.79900
O667        O  0.20107050  0.49865776  0.66073861    -0.81300
O668        O  0.29926722  0.50150381  0.66162537    -0.81600
Eu669      Eu  0.24979179  0.50017544  0.68771237     2.39200
O670        O  0.22017306  0.03259176  0.71869603    -0.89100
O671        O  0.28072661  0.46947483  0.71912379    -0.92700
C672        C  0.32715884  0.50154603  0.67057057     1.02000
C673        C  0.17315100  0.49888965  0.66954576     1.01800
C674        C  0.24835258  0.42094285  0.67350461     1.01800
C675        C  0.25017154  0.07836640  0.67038671     0.99600
H676        H  0.20634068  0.45618722  0.70646995     0.29400
O677        O  0.21901071  0.46911449  0.71887651    -1.01500
H678        H  0.29443889  0.04525514  0.70594514     0.29400
O679        O  0.28174722  0.03252483  0.71878028    -1.04000
O680        O  0.16150107  0.49920934  0.79785595    -0.81200
O681        O  0.33749438  0.50369536  0.79927577    -0.80800
O682        O  0.20077056  0.41241903  0.75302739    -0.79200
O683        O  0.20153187  0.08978403  0.74770655    -0.82500
O684        O  0.30079314  0.08913852  0.75141478    -0.80400
O685        O  0.29916125  0.41291123  0.75047497    -0.79000
O686        O  0.24903746  0.45227341  0.83935140    -0.80600
O687        O  0.25305212  0.05197502  0.83731208    -0.82500
O688        O  0.24888580  0.41576090  0.80229144    -0.79200
O689        O  0.25169743  0.08894692  0.80017328    -0.81900
O690        O  0.16440186  0.44954843  0.75135719    -0.77600
O691        O  0.33540867  0.45016938  0.75001498    -0.77700
O692        O  0.33717535  0.05182919  0.75088898    -0.77300
O693        O  0.16537023  0.05236005  0.74769628    -0.80800
O694        O  0.19817018  0.49926956  0.83473636    -0.80200
O695        O  0.30055738  0.50199614  0.83609990    -0.78600
Eu696      Eu  0.18816529  0.50057456  0.74905570     2.39800
Eu697      Eu  0.31129546  0.50114477  0.74966224     2.39600
Eu698      Eu  0.24982779  0.43875946  0.75084582     2.38400
Eu699      Eu  0.25088558  0.06377501  0.74966988     2.39900
Eu700      Eu  0.24964875  0.50103459  0.81204848     2.39800
O701        O  0.28117006  0.03242950  0.78060350    -0.93000
O702        O  0.21900874  0.47027475  0.78087186    -0.91900
C703        C  0.17009900  0.49865123  0.82595965     1.02200
C704        C  0.32865466  0.50334489  0.82743371     1.00900
C705        C  0.17286043  0.42124887  0.75285206     1.00300
C706        C  0.17370232  0.08069597  0.74731081     1.02300
C707        C  0.32870654  0.08009986  0.75165093     1.01200
C708        C  0.32702498  0.42183081  0.75027495     1.00100
C709        C  0.24866347  0.42423928  0.83058263     1.00100
C710        C  0.25318675  0.08005904  0.82836168     1.02800
H711        H  0.29360676  0.45743167  0.79426756     0.30100
O712        O  0.28088678  0.46995061  0.78139800    -1.05100
H713        H  0.20663045  0.04586377  0.79313323     0.32200
O714        O  0.21937324  0.03304207  0.78061611    -1.07700
O715        O  0.20134119  0.16028074  0.99947540    -0.80300
O716        O  0.19970097  0.33455580  0.99882632    -0.81800
O717        O  0.16219236  0.24919837  0.54998206    -0.78800
O718        O  0.16574870  0.24898784  0.94888826    -0.77200
O719        O  0.20229397  0.24935290  0.91179564    -0.79000
O720        O  0.19896634  0.25178180  0.58677415    -0.79900
O721        O  0.16296315  0.29778064  0.99856498    -0.81300
O722        O  0.16517244  0.19759442  0.99920113    -0.81600
Eu723      Eu  0.18913349  0.24845525  0.00000248     2.39200
O724        O  0.22037914  0.27946527  0.96925292    -0.89100
O725        O  0.21874851  0.21993419  0.53212199    -0.92700
C726        C  0.17349431  0.16924783  0.99883066     1.02000
C727        C  0.17154802  0.32590403  0.99834840     1.01800
C728        C  0.17096701  0.25035732  0.57810232     1.01800
C729        C  0.17429759  0.24927510  0.92058369     0.99600
H730        H  0.20565822  0.29511955  0.54348277     0.29400
O731        O  0.21847360  0.28234056  0.53077980    -1.01500
H732        H  0.20768308  0.20489182  0.95622107     0.29400
O733        O  0.22012821  0.21765216  0.96917672    -1.04000
O734        O  0.30205800  0.33420131  0.99946439    -0.81200
O735        O  0.29859549  0.15987942  0.00261906    -0.80800
O736        O  0.25040163  0.30278163  0.58575403    -0.79200
O737        O  0.25140140  0.29819262  0.91197043    -0.82500
O738        O  0.25234721  0.19878819  0.91433492    -0.80400
O739        O  0.25157046  0.20306794  0.58930816    -0.79000
O740        O  0.33521053  0.25182572  0.55181418    -0.80600
O741        O  0.33911955  0.24575092  0.95207115    -0.82500
O742        O  0.29857579  0.25290337  0.58881393    -0.79200
O743        O  0.30258747  0.24714195  0.91514659    -0.81900
O744        O  0.25102587  0.33980342  0.54874289    -0.77600
O745        O  0.25085930  0.16626539  0.55231894    -0.77700
O746        O  0.25260333  0.16163244  0.95131382    -0.77300
O747        O  0.25069793  0.33479089  0.94900136    -0.80800
O748        O  0.33879901  0.29732262  0.99974853    -0.80200
O749        O  0.33515497  0.19668411  0.00253414    -0.78600
Eu750      Eu  0.25092299  0.31077543  0.99982709     2.39800
Eu751      Eu  0.25023760  0.18686545  0.00120673     2.39600
Eu752      Eu  0.24944900  0.25202523  0.56228719     2.38400
Eu753      Eu  0.25156373  0.24874034  0.93850217     2.39900
Eu754      Eu  0.31217057  0.24803867  0.00094281     2.39800
O755        O  0.28159700  0.21723590  0.96988927    -0.93000
O756        O  0.28026315  0.28271455  0.53086997    -0.91900
C757        C  0.33018009  0.32549501  0.99936483     1.02200
C758        C  0.32648413  0.16846612  0.00311475     1.00900
C759        C  0.25105194  0.33093997  0.57691596     1.00300
C760        C  0.25091067  0.32627416  0.92073167     1.02300
C761        C  0.25263662  0.17074466  0.92325616     1.01200
C762        C  0.25175167  0.17503390  0.58045591     1.00100
C763        C  0.32655012  0.25243883  0.58009911     1.00100
C764        C  0.33060626  0.24595474  0.92391992     1.02800
H765        H  0.29332832  0.20798108  0.54479743     0.30100
O766        O  0.28049711  0.22055541  0.53186009    -1.05100
H767        H  0.29521697  0.29221730  0.95640326     0.32200
O768        O  0.28218106  0.27960795  0.96938994    -1.07700
C769        C  0.26602586  0.12972334  0.65332125    -0.12400
C770        C  0.25065070  0.10250373  0.64677012     0.04600
C771        C  0.23638371  0.09933035  0.61805548    -0.07700
C772        C  0.23707753  0.12342002  0.59717745    -0.08400
C773        C  0.25213810  0.15074485  0.60384610    -0.03000
C774        C  0.26714838  0.15365065  0.63218993     0.03800
N775        N  0.28463705  0.17999406  0.63968405     0.66300
H776        H  0.27781165  0.13234028  0.67489232     0.15200
H777        H  0.22539118  0.12070387  0.57555997     0.14900
N778        N  0.22065241  0.07219969  0.60955404     0.74000
O779        O  0.27323064  0.19941195  0.65757790    -0.39400
O780        O  0.31314826  0.17850000  0.63731533    -0.39300
O781        O  0.19212003  0.07168499  0.61195615    -0.40100
O782        O  0.23330308  0.05433896  0.59087570    -0.40100
C783        C  0.23617683  0.34735710  0.62890886    -0.12400
C784        C  0.25074668  0.35437432  0.60122940     0.04600
C785        C  0.26410630  0.38346514  0.59768811    -0.07700
C786        C  0.26283705  0.40450327  0.62154604    -0.08400
C787        C  0.24829061  0.39752169  0.64920729    -0.03000
C788        C  0.23456463  0.36855995  0.65265842     0.03800
N789        N  0.21756245  0.36055682  0.67927558     0.66300
H790        H  0.22515826  0.32542726  0.63196291     0.15200
H791        H  0.27394370  0.42638482  0.61847613     0.14900
N792        N  0.28074235  0.39166067  0.57094013     0.74000
O793        O  0.18938209  0.36571573  0.67943796    -0.39400
O794        O  0.22801751  0.34016486  0.69677714    -0.39300
O795        O  0.26882263  0.41003434  0.55217441    -0.40100
O796        O  0.30925932  0.38938309  0.57172369    -0.40100
C797        C  0.25449314  0.36966683  0.84484909    -0.12400
C798        C  0.24850402  0.39971005  0.85421374     0.04600
C799        C  0.24301081  0.40510118  0.88565078    -0.07700
C800        C  0.24363975  0.38078200  0.90641601    -0.08400
C801        C  0.25020132  0.35079693  0.89708899    -0.03000
C802        C  0.25581342  0.34547615  0.86566902     0.03800
N803        N  0.26436662  0.31618618  0.85422916     0.66300
H804        H  0.25883797  0.36469224  0.82101437     0.15200
H805        H  0.23897075  0.38570518  0.93022607     0.14900
N806        N  0.23657047  0.43485982  0.89730157     0.74000
O807        O  0.24505490  0.30096546  0.83952888    -0.39400
O808        O  0.29210455  0.31112802  0.84927316    -0.39300
O809        O  0.20938920  0.44173987  0.90326764    -0.40100
O810        O  0.25754759  0.44930716  0.91048222    -0.40100
C811        C  0.23286224  0.12755406  0.85150955    -0.12400
C812        C  0.25420358  0.10372324  0.85231333     0.04600
C813        C  0.27520777  0.10234983  0.87674429    -0.07700
C814        C  0.27398960  0.12405780  0.90005671    -0.08400
C815        C  0.25250460  0.14745700  0.89930646    -0.03000
C816        C  0.23181463  0.14923100  0.87492801     0.03800
N817        N  0.20952142  0.17291048  0.87402803     0.66300
H818        H  0.21650515  0.12888798  0.83306943     0.15200
H819        H  0.29047444  0.12311706  0.91840287     0.14900
N820        N  0.29909679  0.08031441  0.87748691     0.74000
O821        O  0.21569238  0.19726238  0.85992001    -0.39400
O822        O  0.18838328  0.17295529  0.89353416    -0.39300
O823        O  0.32531810  0.08859611  0.86934056    -0.40100
O824        O  0.29651715  0.05762466  0.89514715    -0.40100
C825        C  0.37263594  0.15421154  0.76373413    -0.12400
C826        C  0.40025693  0.14757401  0.74922029     0.04600
C827        C  0.40426174  0.11827854  0.73622252    -0.07700
C828        C  0.38080280  0.09679999  0.73771960    -0.08400
C829        C  0.35302198  0.10359847  0.75189563    -0.03000
C830        C  0.34923514  0.13269535  0.76532399     0.03800
N831        N  0.32249585  0.14053269  0.78201239     0.66300
H832        H  0.36925281  0.17619820  0.77454683     0.15200
H833        H  0.38419281  0.07479703  0.72694263     0.14900
N834        N  0.43111910  0.11029821  0.71978368     0.74000
O835        O  0.32247789  0.13697451  0.81065291    -0.39400
O836        O  0.30398470  0.15915307  0.77024470    -0.39300
O837        O  0.45015266  0.09271762  0.73229533    -0.40100
O838        O  0.43085246  0.11245580  0.69101810    -0.40100
C839        C  0.38084700  0.40685626  0.74161703    -0.12400
C840        C  0.35133357  0.39813951  0.75000756     0.04600
C841        C  0.34608448  0.36710825  0.75758673    -0.07700
C842        C  0.36989251  0.34603144  0.75651540    -0.08400
C843        C  0.39946135  0.35474120  0.74853225    -0.03000
C844        C  0.40477231  0.38581184  0.74088442     0.03800
N845        N  0.43383563  0.39660718  0.73121304     0.66300
H846        H  0.38555840  0.43029071  0.73512723     0.15200
H847        H  0.36503611  0.32251325  0.76239264     0.14900
N848        N  0.31712977  0.35636881  0.76752277     0.74000
O849        O  0.43972644  0.39705576  0.70297393    -0.39400
O850        O  0.44831557  0.41426180  0.74864970    -0.39300
O851        O  0.30152478  0.34046734  0.74940503    -0.40100
O852        O  0.31227413  0.35402917  0.79585874    -0.40100
C853        C  0.12108070  0.09611637  0.76033679    -0.12400
C854        C  0.14926595  0.10412326  0.74764713     0.04600
C855        C  0.15322478  0.13425340  0.73651633    -0.07700
C856        C  0.12936930  0.15522944  0.73831117    -0.08400
C857        C  0.10123159  0.14726824  0.75103846    -0.03000
C858        C  0.09726886  0.11717142  0.76234202     0.03800
N859        N  0.06997902  0.10766451  0.77725617     0.66300
H860        H  0.11756276  0.07338342  0.76954657     0.15200
H861        H  0.13292957  0.17797993  0.72914415     0.14900
N862        N  0.18079694  0.14406231  0.72241284     0.74000
O863        O  0.05095672  0.09228534  0.76226905    -0.39400
O864        O  0.06991245  0.10552627  0.80604240    -0.39300
O865        O  0.18135445  0.14721003  0.69372458    -0.40100
O866        O  0.19959746  0.15883393  0.73827038    -0.40100
C867        C  0.13013904  0.34533425  0.76017056    -0.12400
C868        C  0.10048092  0.35403709  0.75226897     0.04600
C869        C  0.09501784  0.38526703  0.74550642    -0.07700
C870        C  0.11886241  0.40630098  0.74611876    -0.08400
C871        C  0.14855220  0.39754434  0.75369449    -0.03000
C872        C  0.15390693  0.36649307  0.76124263     0.03800
N873        N  0.18289836  0.35581537  0.77115976     0.66300
H874        H  0.13509358  0.32181032  0.76613373     0.15200
H875        H  0.11387896  0.42981916  0.74014303     0.14900
N876        N  0.06583347  0.39636112  0.73679192     0.74000
O877        O  0.18758833  0.35300990  0.79947910    -0.39400
O878        O  0.19866570  0.34017181  0.75292054    -0.39300
O879        O  0.05006703  0.41018737  0.75649115    -0.40100
O880        O  0.06134482  0.40215816  0.70891807    -0.40100
C881        C  0.37029773  0.26167663  0.65507471    -0.12400
C882        C  0.39897222  0.25011854  0.64710814     0.04600
C883        C  0.40307450  0.23867761  0.61718754    -0.07700
C884        C  0.37926987  0.23993783  0.59606215    -0.08400
C885        C  0.35071963  0.25184642  0.60390296    -0.03000
C886        C  0.34628749  0.26239057  0.63415445     0.03800
N887        N  0.31786737  0.27436241  0.64428572     0.66300
H888        H  0.36633958  0.27056273  0.67783179     0.15200
H889        H  0.38315880  0.23085012  0.57336853     0.14900
N890        N  0.43071361  0.22456730  0.60783864     0.74000
O891        O  0.30134205  0.25785384  0.66111945    -0.39400
O892        O  0.31437291  0.30295140  0.64508805    -0.39300
O893        O  0.43236839  0.19578689  0.60841339    -0.40100
O894        O  0.44801079  0.23919667  0.59008652    -0.40100
C895        C  0.09852812  0.23612286  0.62346950    -0.12400
C896        C  0.10332016  0.25384135  0.64954107     0.04600
C897        C  0.13066500  0.27049091  0.65190528    -0.07700
C898        C  0.15219705  0.26907822  0.62830395    -0.08400
C899        C  0.14738836  0.25098224  0.60231571    -0.03000
C900        C  0.12018664  0.23414151  0.60019630     0.03800
N901        N  0.11507381  0.21294726  0.57603749     0.66300
H902        H  0.07820070  0.22266419  0.62181359     0.15200
H903        H  0.17279159  0.28243465  0.63028947     0.14900
N904        N  0.13683164  0.28953440  0.67757051     0.74000
O905        O  0.12236432  0.18536816  0.58025484    -0.39400
O906        O  0.09539572  0.21928320  0.55607149    -0.39300
O907        O  0.15514134  0.28008841  0.69764133    -0.40100
O908        O  0.13201614  0.31785990  0.67522915    -0.40100
C909        C  0.12062545  0.23951126  0.90587400    -0.12400
C910        C  0.14983270  0.24881498  0.89699528     0.04600
C911        C  0.15442365  0.25719158  0.86606609    -0.07700
C912        C  0.13025148  0.25652266  0.84538507    -0.08400
C913        C  0.10096231  0.24752732  0.85428047    -0.03000
C914        C  0.09644117  0.23874374  0.88514721     0.03800
N915        N  0.06812068  0.22724521  0.89589965     0.66300
H916        H  0.11636483  0.23222774  0.92919423     0.15200
H917        H  0.13458736  0.26382787  0.82208849     0.14900
N918        N  0.18275139  0.26853030  0.85522617     0.74000
O919        O  0.06497656  0.19867541  0.89763803    -0.39400
O920        O  0.05219439  0.24395766  0.91306051    -0.39300
O921        O  0.19826683  0.25190089  0.83762624    -0.40100
O922        O  0.18601419  0.29709674  0.85364221    -0.40100
C923        C  0.40604928  0.23816963  0.88118042    -0.12400
C924        C  0.39808125  0.24885440  0.85194996     0.04600
C925        C  0.36773759  0.25805457  0.84683371    -0.07700
C926        C  0.34644493  0.25617602  0.87043264    -0.08400
C927        C  0.35437992  0.24580742  0.89971635    -0.03000
C928        C  0.38475638  0.23653563  0.90491364     0.03800
N929        N  0.39446585  0.22434289  0.93361511     0.66300
H930        H  0.42901305  0.23055331  0.88574017     0.15200
H931        H  0.32349496  0.26362917  0.86577931     0.14900
N932        N  0.35818984  0.27107695  0.81849035     0.74000
O933        O  0.39706540  0.19575946  0.93638030    -0.39400
O934        O  0.40915275  0.24134675  0.95149788    -0.39300
O935        O  0.34221894  0.25516955  0.80070617    -0.40100
O936        O  0.35711720  0.29978396  0.81623122    -0.40100
C937        C  0.34537679  0.37953256  0.00787501    -0.12400
C938        C  0.35148917  0.35330124  0.49618502     0.04600
C939        C  0.38123424  0.34820370  0.48512339    -0.07700
C940        C  0.40310751  0.37120267  0.48721768    -0.08400
C941        C  0.39617866  0.39983398  0.49968726    -0.03000
C942        C  0.36645115  0.40334631  0.00959342     0.03800
N943        N  0.35579961  0.43245079  0.01970013     0.66300
H944        H  0.32198711  0.38449420  0.01356869     0.15200
H945        H  0.42563703  0.36666287  0.47834603     0.14900
N946        N  0.38953559  0.32048394  0.47026075     0.74000
O947        O  0.34006694  0.44833101  0.00159739    -0.39400
O948        O  0.35653179  0.43657193  0.55123744    -0.39300
O949        O  0.39921566  0.31223384  0.95245815    -0.40100
O950        O  0.40531335  0.30133377  0.48485405    -0.40100
C951        C  0.36848738  0.09215276  0.00085148    -0.12400
C952        C  0.39967939  0.10449073  0.49923671     0.04600
C953        C  0.40565123  0.13622618  0.50197348    -0.07700
C954        C  0.38168312  0.15724510  0.50181062    -0.08400
C955        C  0.35130236  0.14789434  0.49940811    -0.03000
C956        C  0.34448243  0.11294680  0.00158313     0.03800
N957        N  0.31437190  0.10096064  0.00037238     0.66300
H958        H  0.36314477  0.06822336  0.99765430     0.15200
H959        H  0.38717605  0.18124502  0.50409746     0.14900
N960        N  0.43563092  0.14796455  0.50574725     0.74000
O961        O  0.30389470  0.09265971  0.97489791    -0.39400
O962        O  0.30340676  0.09313596  0.51872838    -0.39300
O963        O  0.44907898  0.15864989  0.99899900    -0.40100
O964        O  0.44459850  0.15414354  0.53240455    -0.40100
C965        C  0.15612889  0.38035203  0.00410812    -0.12400
C966        C  0.14607030  0.35156154  0.50022703     0.04600
C967        C  0.11743641  0.34747564  0.51438715    -0.07700
C968        C  0.09573639  0.37082425  0.51319048    -0.08400
C969        C  0.10170575  0.39853593  0.49820127    -0.03000
C970        C  0.13484415  0.40408443  0.00511313     0.03800
N971        N  0.14542287  0.43348856  0.01402877     0.66300
H972        H  0.17960612  0.38577744  0.00900113     0.15200
H973        H  0.07420943  0.36739737  0.52471656     0.14900
N974        N  0.11022234  0.32045539  0.53125958     0.74000
O975        O  0.15226306  0.43747741  0.04170709    -0.39400
O976        O  0.15770448  0.45027201  0.99408735    -0.39300
O977        O  0.11354006  0.32062003  0.55990901    -0.40100
O978        O  0.09233709  0.30130881  0.51955104    -0.40100
C979        C  0.11979000  0.15536447  0.50964376    -0.12400
C980        C  0.14849135  0.14760256  0.49815354     0.04600
C981        C  0.15418229  0.11471805  0.99052861    -0.07700
C982        C  0.13002183  0.09402841  0.99074631    -0.08400
C983        C  0.10066977  0.10399183  0.50038371    -0.03000
C984        C  0.09605419  0.13421354  0.51084826     0.03800
N985        N  0.06797882  0.14389788  0.52393089     0.66300
H986        H  0.11565953  0.17813685  0.51817677     0.15200
H987        H  0.13466965  0.07053793  0.98463319     0.14900
N988        N  0.18349883  0.10342202  0.98242048     0.74000
O989        O  0.06563126  0.14424870  0.55266748    -0.39400
O990        O  0.05044436  0.16070363  0.00150256    -0.39300
O991        O  0.19759791  0.08997114  0.48453379    -0.40100
O992        O  0.18969217  0.09990494  0.95447776    -0.40100
C993        C  0.34711470  0.48549322  0.87803454    -0.12400
C994        C  0.35207714  0.00464243  0.85289006     0.04600
C995        C  0.37983358  0.02061142  0.84994989    -0.07700
C996        C  0.40184488  0.01844018  0.87298952    -0.08400
C997        C  0.39687383  0.00097068  0.89948306    -0.03000
C998        C  0.36882086  0.48333195  0.90132923     0.03800
N999        N  0.36194052  0.46463960  0.92714168     0.66300
H1000       H  0.32614286  0.47277301  0.88041548     0.15200
H1001       H  0.42282939  0.03107732  0.87034078     0.14900
N1002       N  0.38564407  0.04038704  0.82457910     0.74000
O1003       O  0.34571422  0.97723041  0.94957636    -0.39400
O1004       O  0.36465679  0.43605055  0.92466190    -0.39300
O1005       O  0.38182291  0.06874776  0.82796044    -0.40100
O1006       O  0.40320897  0.53003755  0.80297169    -0.40100
C1007       C  0.09354309  0.99878714  0.86772271    -0.12400
C1008       C  0.10264837  0.99937688  0.89848282     0.04600
C1009       C  0.13337922  0.50600899  0.90377729    -0.07700
C1010       C  0.15465121  0.50509446  0.88011560    -0.08400
C1011       C  0.14619598  0.00021353  0.85003617    -0.03000
C1012       C  0.11461503  0.99912343  0.84370459     0.03800
N1013       N  0.10304070  0.99830935  0.81322728     0.66300
H1014       H  0.06966179  0.99811589  0.86194623     0.15200
H1015       H  0.17802695  0.51050318  0.88550056     0.14900
N1016       N  0.14400979  0.51398720  0.93349073     0.74000
O1017       O  0.10321774  0.45417206  0.80858441    -0.39400
O1018       O  0.09150566  0.02231152  0.80217098    -0.39300
O1019       O  0.15890988  0.49439071  0.94841879    -0.40100
O1020       O  0.15481024  0.02611070  0.94573852    -0.40100
C1021       C  0.12083194  0.51189289  0.65324413    -0.12400
C1022       C  0.14951193  0.00143278  0.64676741     0.04600
C1023       C  0.15457389  0.99289677  0.61600878    -0.07700
C1024       C  0.13069556  0.99377621  0.59509077    -0.08400
C1025       C  0.10125762  0.00236733  0.60384134    -0.03000
C1026       C  0.09705525  0.51288008  0.63214978     0.03800
N1027       N  0.06979124  0.52820213  0.64075555     0.66300
H1028       H  0.11731142  0.52217348  0.67548033     0.15200
H1029       H  0.13536186  0.98710687  0.57173817     0.14900
N1030       N  0.18332653  0.98208880  0.60549647     0.74000
O1031       O  0.05170023  0.51475896  0.65864449    -0.39400
O1032       O  0.06271706  0.04917947  0.64858580    -0.39300
O1033       O  0.18277496  0.44373431  0.60762884    -0.40100
O1034       O  0.19867714  0.99890858  0.58786003    -0.40100
C1035       C  0.36958630  0.00682394  0.59466493    -0.12400
C1036       C  0.39889886  0.99775513  0.60329810     0.04600
C1037       C  0.40286729  0.48524028  0.63306695    -0.07700
C1038       C  0.37919281  0.48707982  0.65432860    -0.08400
C1039       C  0.35136775  0.00076264  0.64686231    -0.03000
C1040       C  0.34592263  0.00826241  0.61581071     0.03800
N1041       N  0.31686054  0.01796463  0.60504117     0.66300
H1042       H  0.36481949  0.01331443  0.57122190     0.15200
H1043       H  0.38247257  0.47688889  0.67670501     0.14900
N1044       N  0.42998600  0.46967641  0.64194197     0.74000
O1045       O  0.31230418  0.04613113  0.60085750    -0.39400
O1046       O  0.30227150  0.51719558  0.59122190    -0.39300
O1047       O  0.45011150  0.99469158  0.65922041    -0.40100
O1048       O  0.43110195  0.44101453  0.63920659    -0.40100
C1049       C  0.48737460  0.09425824  0.86822950    -0.12400
C1050       C  0.99842418  0.10116212  0.89731431     0.04600
C1051       C  0.00897481  0.13116467  0.90243862    -0.07700
C1052       C  0.00769935  0.15271661  0.87899035    -0.08400
C1053       C  0.99677522  0.14523976  0.84992905    -0.03000
C1054       C  0.48657991  0.11568527  0.84442166     0.03800
N1055       N  0.47358660  0.10668311  0.81594244     0.66300
H1056       H  0.47807101  0.07172528  0.86419251     0.15200
H1057       H  0.01560297  0.17557989  0.88363024     0.14900
N1058       N  0.02184824  0.14022557  0.93093508     0.74000
O1059       O  0.48923482  0.09052461  0.79801639    -0.39400
O1060       O  0.44507371  0.10642531  0.81337393    -0.39300
O1061       O  0.05028167  0.13910320  0.93412110    -0.40100
O1062       O  0.00655847  0.15728282  0.94833049    -0.40100
C1063       C  0.01279864  0.37752271  0.84701349    -0.12400
C1064       C  0.99896612  0.34960139  0.85435892     0.04600
C1065       C  0.48491617  0.34655569  0.88338058    -0.07700
C1066       C  0.48673893  0.36991190  0.90504513    -0.08400
C1067       C  0.00206342  0.39742297  0.89775061    -0.03000
C1068       C  0.01484390  0.40111155  0.86832603     0.03800
N1069       N  0.03221482  0.42741994  0.86026521     0.66300
H1070       H  0.02315165  0.38084177  0.82474887     0.15200
H1071       H  0.47365364  0.36780549  0.92595593     0.14900
N1072       N  0.46536821  0.32127553  0.88961523     0.74000
O1073       O  0.06061174  0.42628433  0.86373178    -0.39400
O1074       O  0.02134315  0.44609964  0.84116362    -0.39300
O1075       O  0.47368808  0.30151212  0.90893375    -0.40100
O1076       O  0.43746425  0.32392718  0.88374001    -0.40100
C1077       C  0.01112882  0.37913135  0.65340368    -0.12400
C1078       C  0.99550960  0.35193967  0.64868090     0.04600
C1079       C  0.47751577  0.35035921  0.62463981    -0.07700
C1080       C  0.47862854  0.37224157  0.60121961    -0.08400
C1081       C  0.99744693  0.39742152  0.60262295    -0.03000
C1082       C  0.01236250  0.40175625  0.63095514     0.03800
N1083       N  0.02994589  0.42838031  0.63722788     0.66300
H1084       H  0.02304360  0.38259063  0.67460006     0.15200
H1085       H  0.46265450  0.37085252  0.58246246     0.14900
N1086       N  0.45547701  0.32641911  0.62361750     0.74000
O1087       O  0.01833675  0.44903053  0.65356299    -0.39400
O1088       O  0.05848093  0.42646874  0.63567610    -0.39300
O1089       O  0.43447121  0.32587027  0.64326558    -0.40100
O1090       O  0.46155350  0.30240970  0.60896191    -0.40100
C1091       C  0.00347536  0.13150357  0.59373303    -0.12400
C1092       C  0.99638971  0.10163008  0.60277074     0.04600
C1093       C  0.49311716  0.09650300  0.63354968    -0.07700
C1094       C  0.49482403  0.12037071  0.65457646    -0.08400
C1095       C  0.99962826  0.14947868  0.64619236    -0.03000
C1096       C  0.00516104  0.15523912  0.61483320     0.03800
N1097       N  0.01412245  0.18449339  0.60373300     0.66300
H1098       H  0.00836471  0.13666537  0.57000303     0.15200
H1099       H  0.49019823  0.11520532  0.67835722     0.14900
N1100       N  0.48389531  0.06721139  0.64459990     0.74000
O1101       O  0.04200106  0.18922442  0.59962288    -0.39400
O1102       O  0.99543648  0.19962939  0.58802894    -0.39300
O1103       O  0.50232858  0.05170435  0.66029830    -0.40100
O1104       O  0.45590315  0.06184338  0.64728216    -0.40100
O1105       O  0.99975080  0.54744236  0.08899944    -0.75900
O1106       O  0.00023144  0.55241821  0.41474890    -0.81800
O1107       O  0.04863096  0.58810049  0.00082475    -0.78800
O1108       O  0.45135100  0.58827647  0.00203861    -0.77200
O1109       O  0.41521903  0.55100913  0.00163468    -0.79000
O1110       O  0.08516069  0.55119112  0.00019417    -0.79900
O1111       O  0.99908467  0.58918902  0.45171882    -0.81300
O1112       O  0.99973840  0.58436066  0.05199184    -0.81600
Eu1113     Eu  0.99980632  0.56145267  0.00092277     2.39200
O1114       O  0.46999467  0.53106265  0.46958664    -0.89100
O1115       O  0.03120651  0.53050797  0.03160655    -0.92700
C1116       C  0.99956693  0.57555936  0.08019992     1.02000
C1117       C  0.99954005  0.58054672  0.42358334     1.01800
C1118       C  0.07657997  0.57946424  0.00060747     1.01800
C1119       C  0.42355868  0.57934109  0.00237718     0.99600
H1120       H  0.04367150  0.54493970  0.45700837     0.29400
O1121       O  0.03091502  0.53210301  0.46944130    -1.01500
H1122       H  0.45688021  0.54321438  0.04455030     0.29400
O1123       O  0.46934408  0.53053769  0.03172016    -1.04000
O1124       O  0.00216667  0.95020872  0.41250360    -0.81200
O1125       O  0.99964706  0.95029793  0.08839381    -0.80800
O1126       O  0.08824714  0.50051742  0.45183229    -0.79200
O1127       O  0.41308928  0.49860949  0.45082078    -0.82500
O1128       O  0.41506800  0.49981419  0.05166589    -0.80400
O1129       O  0.08683918  0.50043367  0.05000310    -0.79000
O1130       O  0.05141844  0.91378438  0.00053801    -0.80600
O1131       O  0.45021692  0.91377073  0.00241473    -0.82500
O1132       O  0.08769914  0.95107478  0.00047751    -0.79200
O1133       O  0.41321380  0.95038283  0.00304787    -0.81900
O1134       O  0.05198781  0.50040653  0.41454411    -0.77600
O1135       O  0.05054235  0.49978370  0.08728544    -0.77700
O1136       O  0.45151246  0.49979506  0.08871581    -0.77300
O1137       O  0.44998832  0.49910706  0.41390922    -0.80800
O1138       O  0.00089011  0.91333612  0.44972716    -0.80200
O1139       O  0.99927798  0.91315798  0.05171296    -0.78600
Eu1140     Eu  0.00053465  0.50128358  0.43787513     2.39800
Eu1141     Eu  0.00087872  0.49839458  0.06225049     2.39600
Eu1142     Eu  0.06173372  0.50007141  0.99991787     2.38400
Eu1143     Eu  0.43855394  0.49972395  0.00072614     2.39900
Eu1144     Eu  0.00046855  0.93771167  0.00101597     2.39800
O1145       O  0.47031985  0.96869957  0.03168816    -0.93000
O1146       O  0.03120119  0.96915171  0.47037278    -0.91900
C1147       C  0.00172348  0.92210495  0.42142788     1.02200
C1148       C  0.99915179  0.92213919  0.07982811     1.00900
C1149       C  0.08000565  0.50025979  0.42359620     1.00300
C1150       C  0.42188084  0.49831680  0.42263185     1.02300
C1151       C  0.42363811  0.49999428  0.07990812     1.01200
C1152       C  0.07839066  0.50049533  0.07830117     1.00100
C1153       C  0.07940358  0.92284016  0.00032707     1.00100
C1154       C  0.42204611  0.92233096  0.00335461     1.02800
H1155       H  0.04398593  0.95638324  0.04477522     0.30100
O1156       O  0.03120440  0.96888786  0.03196030    -1.05100
H1157       H  0.45587918  0.95572772  0.45748315     0.32200
O1158       O  0.46861933  0.96842952  0.46987695    -1.07700
O1159       O  0.00251526  0.70066497  0.16097924    -0.80300
O1160       O  0.00035146  0.69879084  0.33509754    -0.81800
O1161       O  0.05116676  0.66323899  0.24603080    -0.78800
O1162       O  0.45127981  0.66127123  0.24787120    -0.77200
O1163       O  0.41482242  0.69840531  0.24755098    -0.79000
O1164       O  0.08694861  0.70090792  0.24766090    -0.79900
O1165       O  0.00312400  0.66185353  0.29844168    -0.81300
O1166       O  0.00228188  0.66413911  0.19832972    -0.81600
Eu1167     Eu  0.00165115  0.68813524  0.24905442     2.39200
O1168       O  0.46880820  0.71787113  0.27994207    -0.89100
O1169       O  0.03204153  0.72003711  0.21882676    -0.92700
C1170       C  0.00266628  0.67262252  0.17001885     1.02000
C1171       C  0.00202345  0.67065439  0.32648747     1.01800
C1172       C  0.07885588  0.67253888  0.24593914     1.01800
C1173       C  0.42336426  0.67012557  0.24741179     0.99600
H1174       H  0.04430299  0.70678986  0.29341233     0.29400
O1175       O  0.03139860  0.71946111  0.28077586    -1.01500
H1176       H  0.45764733  0.70547586  0.20490503     0.29400
O1177       O  0.46979790  0.71823671  0.21801619    -1.04000
O1178       O  0.99668683  0.79894765  0.33829653    -0.81200
O1179       O  0.99807729  0.79976898  0.16273389    -0.80800
O1180       O  0.08553235  0.75084418  0.30154398    -0.79200
O1181       O  0.41148354  0.74761829  0.29804360    -0.82500
O1182       O  0.41544175  0.74884736  0.19753537    -0.80400
O1183       O  0.08836536  0.75047682  0.20084439    -0.79000
O1184       O  0.04741316  0.83978456  0.25024576    -0.80600
O1185       O  0.45092130  0.83779938  0.24806124    -0.82500
O1186       O  0.08433262  0.80316324  0.25071416    -0.79200
O1187       O  0.41465762  0.80056628  0.24706327    -0.81900
O1188       O  0.04865580  0.74996017  0.33838840    -0.77600
O1189       O  0.05159172  0.74949341  0.16403644    -0.77700
O1190       O  0.45219567  0.74807450  0.16066810    -0.77300
O1191       O  0.44787623  0.74661006  0.33514285    -0.80800
O1192       O  0.99749460  0.83579275  0.30111525    -0.80200
O1193       O  0.99711238  0.83625898  0.20002505    -0.78600
Eu1194     Eu  0.99930747  0.74963320  0.31162505     2.39800
Eu1195     Eu  0.00066121  0.74986634  0.18742671     2.39600
Eu1196     Eu  0.06190417  0.75136988  0.25030301     2.38400
Eu1197     Eu  0.43847537  0.74928131  0.24863710     2.39900
Eu1198     Eu  0.99916124  0.81176184  0.25012722     2.39800
O1199       O  0.46983183  0.78047809  0.21851712    -0.93000
O1200       O  0.03034795  0.78150708  0.28146461    -0.91900
C1201       C  0.99656322  0.82707969  0.32939640     1.02200
C1202       C  0.99675137  0.82765391  0.17188770     1.00900
C1203       C  0.07674134  0.75029515  0.32981383     1.00300
C1204       C  0.41987756  0.74654730  0.32631513     1.02300
C1205       C  0.42416161  0.74814994  0.16931817     1.01200
C1206       C  0.07964784  0.74961713  0.17270790     1.00100
C1207       C  0.07546135  0.83138738  0.25074739     1.00100
C1208       C  0.42310344  0.82891977  0.24696381     1.02800
H1209       H  0.04317209  0.79475850  0.20599255     0.30100
O1210       O  0.03073834  0.78170799  0.21868035    -1.05100
H1211       H  0.45518153  0.79253356  0.29317317     0.32200
O1212       O  0.46826275  0.78009616  0.28066221    -1.07700
O1213       O  0.33603779  0.00059798  0.19915377    -0.80300
O1214       O  0.16555466  0.00144765  0.19869925    -0.81800
O1215       O  0.24902329  0.94826363  0.16555139    -0.78800
O1216       O  0.24667390  0.55057398  0.16289345    -0.77200
O1217       O  0.24802428  0.58698585  0.20024357    -0.79000
O1218       O  0.24808313  0.91113159  0.20226568    -0.79900
O1219       O  0.20203225  0.00026670  0.16160143    -0.81300
O1220       O  0.29966352  0.00065419  0.16204491    -0.81600
Eu1221     Eu  0.25044892  0.99956857  0.18866016     2.39200
O1222       O  0.21966398  0.53169285  0.21927344    -0.89100
O1223       O  0.28136682  0.96824928  0.21930365    -0.92700
C1224       C  0.32758532  0.00094769  0.17085760     1.02000
C1225       C  0.17413838  0.00100704  0.17032768     1.01800
C1226       C  0.24804894  0.91998204  0.17419245     1.01800
C1227       C  0.24651092  0.57854561  0.17196482     0.99600
H1228       H  0.20629479  0.95621549  0.20709960     0.29400
O1229       O  0.21918505  0.96883817  0.21959390    -1.01500
H1230       H  0.29316203  0.54460829  0.20633525     0.29400
O1231       O  0.28075155  0.53153540  0.21909349    -1.04000
O1232       O  0.16314281  0.99745703  0.29981787    -0.81200
O1233       O  0.33830142  0.00114567  0.29908017    -0.80800
O1234       O  0.20044852  0.91243070  0.25338109    -0.79200
O1235       O  0.20177434  0.58925924  0.25131651    -0.82500
O1236       O  0.29918523  0.58827426  0.25089966    -0.80400
O1237       O  0.29930022  0.91171419  0.25083976    -0.79000
O1238       O  0.24897295  0.94999910  0.33863710    -0.80600
O1239       O  0.25154913  0.54852550  0.33921143    -0.82500
O1240       O  0.24823287  0.91360027  0.30137014    -0.79200
O1241       O  0.25088949  0.58581818  0.30256964    -0.81900
O1242       O  0.16447543  0.94999181  0.25221574    -0.77600
O1243       O  0.33583872  0.94870401  0.24990820    -0.77700
O1244       O  0.33554401  0.55108076  0.25018134    -0.77300
O1245       O  0.16512610  0.55239261  0.24931039    -0.80800
O1246       O  0.19998473  0.99692188  0.33646478    -0.80200
O1247       O  0.30160054  0.00068365  0.33596840    -0.78600
Eu1248     Eu  0.18891067  0.00054233  0.25029915     2.39800
Eu1249     Eu  0.31193160  0.99978548  0.24994764     2.39600
Eu1250     Eu  0.25004286  0.93794035  0.25101088     2.38400
Eu1251     Eu  0.25022752  0.56224604  0.25098305     2.39900
Eu1252     Eu  0.25069601  0.99961031  0.31268300     2.39800
O1253       O  0.28126740  0.53070227  0.28112320    -0.93000
O1254       O  0.21976067  0.96960372  0.28132269    -0.91900
C1255       C  0.17189557  0.99619374  0.32789693     1.02200
C1256       C  0.32966060  0.00135422  0.32722939     1.00900
C1257       C  0.17263159  0.92161655  0.25347717     1.00300
C1258       C  0.17388291  0.58064713  0.25014187     1.02300
C1259       C  0.32703975  0.57941225  0.25058335     1.01200
C1260       C  0.32723884  0.92043448  0.25031098     1.00100
C1261       C  0.24790179  0.92204273  0.32958946     1.00100
C1262       C  0.25146460  0.57677513  0.33080649     1.02800
H1263       H  0.29418418  0.95575888  0.29444688     0.30100
O1264       O  0.28155339  0.96851821  0.28171783    -1.05100
H1265       H  0.20664918  0.54359902  0.29459693     0.32200
O1266       O  0.21923717  0.53103991  0.28166405    -1.07700
O1267       O  0.20216889  0.66064061  0.50326254    -0.80300
O1268       O  0.19946475  0.83584052  0.49862258    -0.81800
O1269       O  0.16165440  0.75133679  0.04759215    -0.78800
O1270       O  0.16481693  0.75010120  0.44919429    -0.77200
O1271       O  0.20152932  0.75096283  0.41226889    -0.79000
O1272       O  0.19809881  0.75106017  0.08468459    -0.79900
O1273       O  0.16273705  0.79894833  0.49803858    -0.81300
O1274       O  0.16599173  0.69791486  0.50199199    -0.81600
Eu1275     Eu  0.18884361  0.74948579  0.50000984     2.39200
O1276       O  0.21993991  0.78024680  0.46897589    -0.89100
O1277       O  0.21886012  0.71935066  0.03070405    -0.92700
C1278       C  0.17431811  0.66953703  0.50294524     1.02000
C1279       C  0.17136841  0.82708249  0.49802255     1.01800
C1280       C  0.17010072  0.75135392  0.07579062     1.01800
C1281       C  0.17347529  0.75101288  0.42094199     0.99600
H1282       H  0.20612659  0.79460548  0.04226626     0.29400
O1283       O  0.21904143  0.78160617  0.02991713    -1.01500
H1284       H  0.20702278  0.70515516  0.45731079     0.29400
O1285       O  0.21976445  0.71802556  0.46993708    -1.04000
O1286       O  0.30175496  0.83487402  0.50056529    -0.81200
O1287       O  0.29988780  0.66156297  0.50286857    -0.80800
O1288       O  0.24993503  0.80133883  0.08585650    -0.79200
O1289       O  0.25208375  0.79800316  0.41210033    -0.82500
O1290       O  0.24966954  0.69874678  0.41477276    -0.80400
O1291       O  0.24903048  0.70145897  0.08795838    -0.79000
O1292       O  0.33531760  0.74905022  0.05158799    -0.80600
O1293       O  0.33852159  0.74575450  0.45220987    -0.82500
O1294       O  0.29855568  0.75020158  0.08842261    -0.79200
O1295       O  0.30171479  0.74555384  0.41555019    -0.81900
O1296       O  0.25068003  0.83848336  0.04906301    -0.77600
O1297       O  0.24904737  0.66432543  0.05128872    -0.77700
O1298       O  0.24978185  0.66234913  0.45232198    -0.77300
O1299       O  0.25108698  0.83522657  0.44859673    -0.80800
O1300       O  0.33850751  0.79801765  0.50121866    -0.80200
O1301       O  0.33634193  0.69854511  0.50354065    -0.78600
Eu1302     Eu  0.25053841  0.81175101  0.49934990     2.39800
Eu1303     Eu  0.25054239  0.68788619  0.50218920     2.39600
Eu1304     Eu  0.24926869  0.75077957  0.06169181     2.38400
Eu1305     Eu  0.25097356  0.74882635  0.43888523     2.39900
Eu1306     Eu  0.31193357  0.74903923  0.50153367     2.39800
O1307       O  0.28152249  0.71796494  0.47051823    -0.93000
O1308       O  0.28104734  0.78108058  0.03104707    -0.91900
C1309       C  0.32984571  0.82613122  0.50115263     1.02200
C1310       C  0.32783005  0.67032084  0.50349608     1.00900
C1311       C  0.25036487  0.82959451  0.07722707     1.00300
C1312       C  0.25162469  0.82616912  0.42056193     1.02300
C1313       C  0.24914089  0.67079510  0.42402386     1.01200
C1314       C  0.24901674  0.67333487  0.07941182     1.00100
C1315       C  0.32659320  0.74946341  0.07976575     1.00100
C1316       C  0.32978531  0.74469252  0.42409783     1.02800
H1317       H  0.29270222  0.70610052  0.04476021     0.30100
O1318       O  0.28033005  0.71895382  0.03163286    -1.05100
H1319       H  0.29503137  0.79248903  0.45636275     0.32200
O1320       O  0.28185448  0.78007204  0.46941112    -1.07700
C1321       C  0.26050888  0.63047978  0.15434775    -0.12400
C1322       C  0.24568754  0.60284728  0.14830034     0.04600
C1323       C  0.23170648  0.59890027  0.11946503    -0.07700
C1324       C  0.23324042  0.62212456  0.09751738    -0.08400
C1325       C  0.24836106  0.64956885  0.10348945    -0.03000
C1326       C  0.26218120  0.65360424  0.13232270     0.03800
N1327       N  0.27918657  0.68037186  0.13937707     0.66300
H1328       H  0.27175168  0.63392399  0.17609002     0.15200
H1329       H  0.22212690  0.61871710  0.07570078     0.14900
N1330       N  0.21520167  0.57190789  0.11204673     0.74000
O1331       O  0.26638053  0.70135848  0.15429124    -0.39400
O1332       O  0.30778769  0.67884591  0.13930723    -0.39300
O1333       O  0.18660478  0.57261152  0.11344904    -0.40100
O1334       O  0.22777684  0.55227338  0.09520306    -0.40100
C1335       C  0.24035149  0.84450163  0.13116095    -0.12400
C1336       C  0.24969645  0.85314206  0.10166097     0.04600
C1337       C  0.25809406  0.88390302  0.09659523    -0.07700
C1338       C  0.25639090  0.90501212  0.12034132    -0.08400
C1339       C  0.24750413  0.89636787  0.14988955    -0.03000
C1340       C  0.23954610  0.86545601  0.15521490     0.03800
N1341       N  0.23055930  0.85456499  0.18466670     0.66300
H1342       H  0.23369032  0.82113064  0.13586146     0.15200
H1343       H  0.26348043  0.92826211  0.11566098     0.14900
N1344       N  0.27149276  0.89383003  0.06863172     0.74000
O1345       O  0.20264322  0.85120357  0.19012530    -0.39400
O1346       O  0.24950991  0.83962060  0.20034037    -0.39300
O1347       O  0.25572765  0.90960786  0.05041010    -0.40100
O1348       O  0.29996190  0.89652913  0.06787720    -0.40100
C1349       C  0.25954480  0.86902854  0.34529293    -0.12400
C1350       C  0.24735076  0.89758346  0.35295112     0.04600
C1351       C  0.23561614  0.90192282  0.38266428    -0.07700
C1352       C  0.23743079  0.87831616  0.40409298    -0.08400
C1353       C  0.25073842  0.85013050  0.39674127    -0.03000
C1354       C  0.26189329  0.84558196  0.36682587     0.03800
N1355       N  0.27705306  0.81808820  0.35812285     0.66300
H1356       H  0.26782171  0.86495702  0.32242856     0.15200
H1357       H  0.22781470  0.88204130  0.42659909     0.14900
N1358       N  0.22004380  0.92924649  0.39111456     0.74000
O1359       O  0.26336729  0.79933317  0.34121338    -0.39400
O1360       O  0.30564733  0.81725145  0.35928286    -0.39300
O1361       O  0.19141308  0.92904327  0.39160697    -0.40100
O1362       O  0.23394877  0.94896917  0.40668411    -0.40100
C1363       C  0.23858697  0.62943920  0.34857399    -0.12400
C1364       C  0.25116170  0.60056963  0.35516006     0.04600
C1365       C  0.26184167  0.59498428  0.38525474    -0.07700
C1366       C  0.26020036  0.61794505  0.40726059    -0.08400
C1367       C  0.24817448  0.64667376  0.40046656    -0.03000
C1368       C  0.23608197  0.65200122  0.37112852     0.03800
N1369       N  0.21935034  0.67929891  0.36469670     0.66300
H1370       H  0.22999165  0.63428012  0.32597166     0.15200
H1371       H  0.26827514  0.61308490  0.43004661     0.14900
N1372       N  0.27482538  0.56644835  0.39424961     0.74000
O1373       O  0.23226539  0.70117352  0.35110634    -0.39400
O1374       O  0.19445551  0.68394600  0.37824790    -0.39300
O1375       O  0.30335966  0.56412889  0.39504714    -0.40100
O1376       O  0.25919592  0.54883718  0.41085309    -0.40100
C1377       C  0.36938291  0.65551139  0.25474289    -0.12400
C1378       C  0.39909598  0.64650904  0.24744812     0.04600
C1379       C  0.40447637  0.61534046  0.24081901    -0.07700
C1380       C  0.38077527  0.59426118  0.24247700    -0.08400
C1381       C  0.35114085  0.60318882  0.24999186    -0.03000
C1382       C  0.34553986  0.63452911  0.25582978     0.03800
N1383       N  0.31602558  0.64586534  0.26315595     0.66300
H1384       H  0.36435834  0.67917785  0.25990239     0.15200
H1385       H  0.38572827  0.57065466  0.23698308     0.14900
N1386       N  0.43309401  0.60459221  0.23008505     0.74000
O1387       O  0.30962570  0.65087972  0.29081523    -0.39400
O1388       O  0.30121676  0.65967864  0.24265475    -0.39300
O1389       O  0.45038433  0.59100082  0.24865120    -0.40100
O1390       O  0.43547435  0.59861106  0.20201445    -0.40100
C1391       C  0.38038459  0.90474891  0.23906164    -0.12400
C1392       C  0.35134729  0.89656922  0.24944511     0.04600
C1393       C  0.34634349  0.86588044  0.25839889    -0.07700
C1394       C  0.36979286  0.84448074  0.25635255    -0.08400
C1395       C  0.39893123  0.85271166  0.24653151    -0.03000
C1396       C  0.40410265  0.88349144  0.23783496     0.03800
N1397       N  0.43301081  0.89387597  0.22733692     0.66300
H1398       H  0.38493820  0.92797632  0.23175500     0.15200
H1399       H  0.36525532  0.82129627  0.26365871     0.14900
N1400       N  0.31870805  0.85628664  0.27238697     0.74000
O1401       O  0.43739933  0.89642037  0.19893026    -0.39400
O1402       O  0.44927465  0.90925831  0.24531981    -0.39300
O1403       O  0.30062272  0.84000796  0.25717433    -0.40100
O1404       O  0.31799238  0.85464151  0.30116036    -0.40100
C1405       C  0.12228895  0.59773038  0.23507002    -0.12400
C1406       C  0.15015212  0.60476614  0.24872932     0.04600
C1407       C  0.15448286  0.63462141  0.26029543    -0.07700
C1408       C  0.13143058  0.65640105  0.25766233    -0.08400
C1409       C  0.10321928  0.64908650  0.24495695    -0.03000
C1410       C  0.09877508  0.61915860  0.23354788     0.03800
N1411       N  0.07057895  0.60961571  0.22071262     0.66300
H1412       H  0.11842248  0.57516714  0.22573570     0.15200
H1413       H  0.13517015  0.67879851  0.26744406     0.14900
N1414       N  0.18030270  0.64243370  0.27822911     0.74000
O1415       O  0.06789317  0.60913425  0.19200362    -0.39400
O1416       O  0.05337101  0.59292135  0.23666692    -0.39300
O1417       O  0.19970751  0.66050669  0.26708844    -0.40100
O1418       O  0.17775341  0.64063234  0.30690587    -0.40100
C1419       C  0.12888022  0.84644832  0.26094279    -0.12400
C1420       C  0.09954046  0.85533537  0.25203633     0.04600
C1421       C  0.09448806  0.88657677  0.24504697    -0.07700
C1422       C  0.11857150  0.90733715  0.24597900    -0.08400
C1423       C  0.14801550  0.89828683  0.25424109    -0.03000
C1424       C  0.15283728  0.86732651  0.26239518     0.03800
N1425       N  0.18138991  0.85652088  0.27344708     0.66300
H1426       H  0.13343052  0.82297015  0.26740201     0.15200
H1427       H  0.11399385  0.93086250  0.23970241     0.14900
N1428       N  0.06552410  0.89797776  0.23596302     0.74000
O1429       O  0.18502991  0.85396597  0.30195126    -0.39400
O1430       O  0.19772635  0.84061011  0.25593472    -0.39300
O1431       O  0.04960697  0.91177580  0.25556183    -0.40100
O1432       O  0.06156952  0.90420562  0.20809288    -0.40100
C1433       C  0.37071675  0.75798524  0.15435177    -0.12400
C1434       C  0.39977366  0.74786254  0.14576729     0.04600
C1435       C  0.40414356  0.73761439  0.11541714    -0.07700
C1436       C  0.37992141  0.73820668  0.09474386    -0.08400
C1437       C  0.35094393  0.74868390  0.10330841    -0.03000
C1438       C  0.34648965  0.75835568  0.13377678     0.03800
N1439       N  0.31786657  0.76933965  0.14443243     0.66300
H1440       H  0.36659697  0.76613723  0.17735380     0.15200
H1441       H  0.38393671  0.72998413  0.07174215     0.14900
N1442       N  0.43247388  0.72548434  0.10514493     0.74000
O1443       O  0.30271421  0.75274006  0.16244249    -0.39400
O1444       O  0.31299770  0.79773877  0.14423714    -0.39300
O1445       O  0.43587736  0.69686609  0.10468344    -0.40100
O1446       O  0.44888999  0.74172177  0.08792747    -0.40100
C1447       C  0.09510327  0.75999208  0.11902794    -0.12400
C1448       C  0.10316876  0.74947726  0.14828326     0.04600
C1449       C  0.13331390  0.73939666  0.15312995    -0.07700
C1450       C  0.15434088  0.74042972  0.12919535    -0.08400
C1451       C  0.14634871  0.75109219  0.09998952    -0.03000
C1452       C  0.11609961  0.76086531  0.09502450     0.03800
N1453       N  0.10611677  0.77242328  0.06615482     0.66300
H1454       H  0.07224998  0.76804443  0.11464146     0.15200
H1455       H  0.17714892  0.73224562  0.13357900     0.14900
N1456       N  0.14306497  0.72697521  0.18171058     0.74000
O1457       O  0.09201957  0.75471786  0.04846558    -0.39400
O1458       O  0.10258017  0.80087374  0.06304377    -0.39300
O1459       O  0.14445745  0.69831724  0.18459634    -0.40100
O1460       O  0.15910425  0.74337370  0.19897755    -0.40100
C1461       C  0.12038679  0.73983283  0.40494574    -0.12400
C1462       C  0.14912881  0.75142882  0.39720378     0.04600
C1463       C  0.15350512  0.76286678  0.36720621    -0.07700
C1464       C  0.12967044  0.76209198  0.34601794    -0.08400
C1465       C  0.10093996  0.75043693  0.35373275    -0.03000
C1466       C  0.09648111  0.73927805  0.38384752     0.03800
N1467       N  0.06824739  0.72647227  0.39352313     0.66300
H1468       H  0.11633996  0.73066104  0.42763368     0.15200
H1469       H  0.13367907  0.77134486  0.32335616     0.14900
N1470       N  0.18140435  0.77665762  0.35793566     0.74000
O1471       O  0.06569588  0.69778332  0.39463910    -0.39400
O1472       O  0.05068685  0.74259256  0.40960370    -0.39300
O1473       O  0.19810031  0.76267931  0.33914750    -0.40100
O1474       O  0.18419479  0.80522083  0.36043727    -0.40100
C1475       C  0.40495753  0.73700006  0.38060795    -0.12400
C1476       C  0.39613634  0.74493791  0.35070486     0.04600
C1477       C  0.36508087  0.75124761  0.34532430    -0.07700
C1478       C  0.34425327  0.75016606  0.36942894    -0.08400
C1479       C  0.35319628  0.74325433  0.39947069    -0.03000
C1480       C  0.38410066  0.73611741  0.40480903     0.03800
N1481       N  0.39499913  0.72747534  0.43435110     0.66300
H1482       H  0.42840638  0.73136924  0.38550165     0.15200
H1483       H  0.32080798  0.75569314  0.36443505     0.14900
N1484       N  0.35407830  0.76032870  0.31600447     0.74000
O1485       O  0.39741389  0.69943196  0.44065366    -0.39400
O1486       O  0.41063408  0.74638338  0.44925343    -0.39300
O1487       O  0.33916720  0.74131263  0.30048626    -0.40100
O1488       O  0.35037619  0.78844026  0.31082189    -0.40100
C1489       C  0.34510622  0.87967417  0.51187843    -0.12400
C1490       C  0.35409589  0.85080185  0.00134992     0.04600
C1491       C  0.38440717  0.84542294  0.99197439    -0.07700
C1492       C  0.40586622  0.86893237  0.99319400    -0.08400
C1493       C  0.39830361  0.89812420  0.00391287    -0.03000
C1494       C  0.36599882  0.90368923  0.51301593     0.03800
N1495       N  0.35551057  0.93260399  0.52380122     0.66300
H1496       H  0.32195962  0.88417257  0.51880196     0.15200
H1497       H  0.42864408  0.86425060  0.98507960     0.14900
N1498       N  0.39385604  0.81677367  0.97976869     0.74000
O1499       O  0.33983882  0.94901437  0.50607302    -0.39400
O1500       O  0.35786426  0.93454588  0.05525982    -0.39300
O1501       O  0.39750999  0.81225186  0.45504648    -0.40100
O1502       O  0.40830580  0.79863174  0.99686731    -0.40100
C1503       C  0.37132720  0.59528930  0.49569270    -0.12400
C1504       C  0.39924103  0.60290628  0.00333132     0.04600
C1505       C  0.40459119  0.63405029  0.01019025    -0.07700
C1506       C  0.38063252  0.65501640  0.00924234    -0.08400
C1507       C  0.35083868  0.64592367  0.00238574    -0.03000
C1508       C  0.34751508  0.61628996  0.49480243     0.03800
N1509       N  0.31997181  0.60685740  0.48072697     0.66300
H1510       H  0.36707816  0.57245889  0.48721867     0.15200
H1511       H  0.38554854  0.67866760  0.01449847     0.14900
N1512       N  0.43369637  0.64493483  0.01947171     0.74000
O1513       O  0.31869367  0.60768910  0.45194944    -0.39400
O1514       O  0.30263518  0.58785532  0.01194760    -0.39300
O1515       O  0.44984664  0.66070688  0.50864844    -0.40100
O1516       O  0.43902257  0.64752022  0.04768324    -0.40100
C1517       C  0.15379548  0.87897930  0.51284060    -0.12400
C1518       C  0.14815046  0.85211879  0.99502595     0.04600
C1519       C  0.11817781  0.84714580  0.98441976    -0.07700
C1520       C  0.09642553  0.87039135  0.98667062    -0.08400
C1521       C  0.10354801  0.89901772  0.99905784    -0.03000
C1522       C  0.13191891  0.90211458  0.51506428     0.03800
N1523       N  0.13915926  0.92853575  0.53260510     0.66300
H1524       H  0.17571094  0.88255915  0.52344162     0.15200
H1525       H  0.07378166  0.86600798  0.97811583     0.14900
N1526       N  0.10938206  0.81920368  0.97021026     0.74000
O1527       O  0.13591600  0.92723595  0.56124494    -0.39400
O1528       O  0.15704438  0.94809263  0.52140555    -0.39300
O1529       O  0.09387362  0.80029706  0.98543410    -0.40100
O1530       O  0.10832590  0.81820684  0.94139914    -0.40100
C1531       C  0.11870075  0.65602475  0.00252604    -0.12400
C1532       C  0.14909764  0.64659512  0.00031770     0.04600
C1533       C  0.15533409  0.61412962  0.50593969    -0.07700
C1534       C  0.13102646  0.59364439  0.50590242    -0.08400
C1535       C  0.10078788  0.60330688  0.00072933    -0.03000
C1536       C  0.09475821  0.63506318  0.00269557     0.03800
N1537       N  0.06465406  0.64691388  0.00505936     0.66300
H1538       H  0.11315044  0.68007903  0.00416860     0.15200
H1539       H  0.13612870  0.56953565  0.50827850     0.14900
N1540       N  0.18520838  0.60158012  0.50776640     0.74000
O1541       O  0.05517704  0.65523057  0.03095470    -0.39400
O1542       O  0.05925693  0.65361644  0.46544080    -0.39300
O1543       O  0.19659396  0.58969054  0.01921885    -0.40100
O1544       O  0.19697666  0.59097333  0.48371173    -0.40100
C1545       C  0.34446084  0.99587047  0.38177201    -0.12400
C1546       C  0.35371315  0.50077947  0.35128769     0.04600
C1547       C  0.38154893  0.51666817  0.34831411    -0.07700
C1548       C  0.40337360  0.51489255  0.37155494    -0.08400
C1549       C  0.39820773  0.49800954  0.39835266    -0.03000
C1550       C  0.36550929  0.99492845  0.40560185     0.03800
N1551       N  0.35438107  0.98818562  0.43554346     0.66300
H1552       H  0.32086308  0.99153684  0.38725534     0.15200
H1553       H  0.42427132  0.52767664  0.36892678     0.14900
N1554       N  0.38754726  0.53631045  0.32290106     0.74000
O1555       O  0.34679670  0.47416152  0.44780627    -0.39400
O1556       O  0.34776366  0.96086894  0.44192669    -0.39300
O1557       O  0.38466239  0.56475502  0.32651166    -0.40100
O1558       O  0.40669309  0.99420861  0.29938530    -0.40100
C1559       C  0.09670378  0.48850494  0.37054992    -0.12400
C1560       C  0.10421834  0.49925722  0.39976032     0.04600
C1561       C  0.13601159  0.99918519  0.40663210    -0.07700
C1562       C  0.15716488  0.99848574  0.38278818    -0.08400
C1563       C  0.14833840  0.49700026  0.35224591    -0.03000
C1564       C  0.11819645  0.48720432  0.34700290     0.03800
N1565       N  0.10890116  0.47498284  0.31828202     0.66300
H1566       H  0.07387770  0.48066038  0.36583641     0.15200
H1567       H  0.18086863  0.00177034  0.38844222     0.14900
N1568       N  0.14729036  0.00422792  0.43677916     0.74000
O1569       O  0.10019456  0.95660060  0.30879086    -0.39400
O1570       O  0.09296639  0.49138014  0.30076875    -0.39300
O1571       O  0.15996320  0.98233200  0.45061072    -0.40100
O1572       O  0.14555633  0.54879817  0.43733314    -0.40100
C1573       C  0.12057563  0.01006697  0.15499589    -0.12400
C1574       C  0.14979179  0.49931728  0.14594813     0.04600
C1575       C  0.15508584  0.48933659  0.11559174    -0.07700
C1576       C  0.13165192  0.49062646  0.09409926    -0.08400
C1577       C  0.10252065  0.50085526  0.10196460    -0.03000
C1578       C  0.09662381  0.01037103  0.13406280     0.03800
N1579       N  0.06720278  0.01820666  0.14523430     0.66300
H1580       H  0.11572788  0.01634107  0.17844618     0.15200
H1581       H  0.13629182  0.48316890  0.07105013     0.14900
N1582       N  0.18354410  0.47677771  0.10613934     0.74000
O1583       O  0.05297397  0.99863772  0.16083453    -0.39400
O1584       O  0.06536392  0.55171209  0.14178143    -0.39300
O1585       O  0.18868481  0.95448284  0.10459512    -0.40100
O1586       O  0.20041230  0.49246126  0.08885897    -0.40100
C1587       C  0.37018632  0.51010590  0.09458454    -0.12400
C1588       C  0.39946427  0.50113196  0.10352883     0.04600
C1589       C  0.40525006  0.99088733  0.13501447    -0.07700
C1590       C  0.38127393  0.99184912  0.15595602    -0.08400
C1591       C  0.35116225  0.50329746  0.14647600    -0.03000
C1592       C  0.34615941  0.51117780  0.11543012     0.03800
N1593       N  0.31716536  0.52065703  0.10430753     0.66300
H1594       H  0.36566324  0.51646374  0.07105550     0.15200
H1595       H  0.38575426  0.98482706  0.17930231     0.14900
N1596       N  0.43410132  0.98060360  0.14576526     0.74000
O1597       O  0.31267307  0.54874775  0.09954361    -0.39400
O1598       O  0.30258417  0.00498861  0.08893568    -0.39300
O1599       O  0.44804337  0.50119628  0.16310326    -0.40100
O1600       O  0.43850705  0.95225009  0.14850492    -0.40100
C1601       C  0.50834291  0.59467272  0.37059154    -0.12400
C1602       C  0.00005413  0.60420108  0.39932470     0.04600
C1603       C  0.98929245  0.63430728  0.40372168    -0.07700
C1604       C  0.99051515  0.65527704  0.37968076    -0.08400
C1605       C  0.00205543  0.64717351  0.35089262    -0.03000
C1606       C  0.50902801  0.61565702  0.34654360     0.03800
N1607       N  0.51950826  0.60521574  0.31749285     0.66300
H1608       H  0.51600357  0.57158535  0.36610264     0.15200
H1609       H  0.98163607  0.67803366  0.38359076     0.14900
N1610       N  0.97567728  0.64390786  0.43174862     0.74000
O1611       O  0.54772179  0.60302944  0.31305145    -0.39400
O1612       O  0.50182822  0.58937458  0.30136178    -0.39300
O1613       O  0.99076070  0.66080852  0.44939834    -0.40100
O1614       O  0.94710353  0.64422376  0.43363376    -0.40100
C1615       C  0.01297716  0.87817794  0.34707422    -0.12400
C1616       C  0.99664215  0.85132248  0.35306500     0.04600
C1617       C  0.48326278  0.84565774  0.38297555    -0.07700
C1618       C  0.48506112  0.86890679  0.40483387    -0.08400
C1619       C  0.00091033  0.89806649  0.39761339    -0.03000
C1620       C  0.01528557  0.90138047  0.36886449     0.03800
N1621       N  0.03377328  0.92722658  0.36181046     0.66300
H1622       H  0.02481202  0.88094615  0.32549454     0.15200
H1623       H  0.47393221  0.86555434  0.42670562     0.14900
N1624       N  0.46632241  0.81883016  0.39043660     0.74000
O1625       O  0.06217895  0.92465134  0.36432378    -0.39400
O1626       O  0.02315338  0.94786442  0.34468123    -0.39300
O1627       O  0.47765913  0.79966983  0.40877442    -0.40100
O1628       O  0.43794575  0.81911759  0.38663094    -0.40100
C1629       C  0.01089829  0.87899240  0.15430714    -0.12400
C1630       C  0.99567604  0.85177445  0.14852171     0.04600
C1631       C  0.48802793  0.84554190  0.11828189    -0.07700
C1632       C  0.48913166  0.86883761  0.09629151    -0.08400
C1633       C  0.99802928  0.89829946  0.10386903    -0.03000
C1634       C  0.01237523  0.90211047  0.13248914     0.03800
N1635       N  0.02931860  0.92879695  0.13986768     0.66300
H1636       H  0.02231949  0.88209900  0.17586174     0.15200
H1637       H  0.48096035  0.86401991  0.07346055     0.14900
N1638       N  0.47525258  0.81666605  0.11024237     0.74000
O1639       O  0.01754497  0.94770221  0.15807037    -0.39400
O1640       O  0.05785705  0.92778709  0.13758729    -0.39300
O1641       O  0.44989323  0.80898115  0.12128005    -0.40100
O1642       O  0.49191901  0.79663906  0.09807284    -0.40100
C1643       C  0.01118852  0.62862593  0.09541421    -0.12400
C1644       C  0.99986115  0.59984467  0.10371629     0.04600
C1645       C  0.48708811  0.59784137  0.13154289    -0.07700
C1646       C  0.48954584  0.62102546  0.15316621    -0.08400
C1647       C  0.00236588  0.64814238  0.14663586    -0.03000
C1648       C  0.01254006  0.65262668  0.11627115     0.03800
N1649       N  0.02514683  0.68093210  0.10608804     0.66300
H1650       H  0.01949174  0.63260572  0.07246215     0.15200
H1651       H  0.47894509  0.61792487  0.17516267     0.14900
N1652       N  0.46938594  0.57165213  0.13913509     0.74000
O1653       O  0.05361958  0.68393242  0.10602034    -0.39400
O1654       O  0.00952014  0.69769273  0.08863135    -0.39300
O1655       O  0.47940598  0.55357499  0.15922690    -0.40100
O1656       O  0.44124988  0.57219281  0.13379101    -0.40100
O1657       O  0.99956042  0.54839530  0.58879490    -0.75900
O1658       O  0.99735298  0.55149955  0.91528194    -0.81800
O1659       O  0.04858202  0.58906539  0.50166240    -0.78800
O1660       O  0.45259497  0.58865393  0.50437865    -0.77200
O1661       O  0.41614097  0.55172501  0.50262508    -0.79000
O1662       O  0.08466747  0.55169339  0.50132770    -0.79900
O1663       O  0.99681904  0.58856984  0.95194991    -0.81300
O1664       O  0.00034774  0.58550734  0.55204638    -0.81600
Eu1665     Eu  0.99975892  0.56249596  0.50103512     2.39200
O1666       O  0.46899371  0.53064920  0.96921079    -0.89100
O1667       O  0.03040977  0.53116733  0.53197642    -0.92700
C1668       C  0.00015351  0.57655233  0.58020476     1.02000
C1669       C  0.99633128  0.57972348  0.92388926     1.01800
C1670       C  0.07641553  0.58006665  0.50164891     1.01800
C1671       C  0.42469792  0.57994858  0.50427288     0.99600
H1672       H  0.04308338  0.54419026  0.95623965     0.29400
O1673       O  0.03073871  0.53121226  0.96894275    -1.01500
H1674       H  0.45735383  0.54276332  0.54557976     0.29400
O1675       O  0.46972175  0.53028077  0.53246097    -1.04000
O1676       O  0.00042413  0.95019046  0.91260588    -0.81200
O1677       O  0.00134022  0.94941273  0.58802853    -0.80800
O1678       O  0.08717126  0.49990266  0.95009973    -0.79200
O1679       O  0.41194400  0.49853287  0.95116689    -0.82500
O1680       O  0.41487620  0.49841935  0.55151082    -0.80400
O1681       O  0.08525675  0.50030413  0.55107934    -0.79000
O1682       O  0.05097742  0.91335915  0.50139203    -0.80600
O1683       O  0.44817334  0.91440323  0.50304630    -0.82500
O1684       O  0.08761120  0.95037044  0.50271293    -0.79200
O1685       O  0.41140523  0.95125944  0.50289139    -0.81900
O1686       O  0.05045168  0.50041885  0.91330641    -0.77600
O1687       O  0.04870896  0.50006869  0.58818060    -0.77700
O1688       O  0.45114599  0.49674377  0.58873417    -0.77300
O1689       O  0.44862818  0.49876455  0.91404040    -0.80800
O1690       O  0.00114048  0.91364927  0.95001378    -0.80200
O1691       O  0.99893682  0.91243328  0.55119045    -0.78600
Eu1692     Eu  0.99997314  0.50004475  0.93800940     2.39800
Eu1693     Eu  0.99932799  0.49940825  0.56210082     2.39600
Eu1694     Eu  0.06111526  0.50061154  0.50064295     2.38400
Eu1695     Eu  0.43902033  0.50027633  0.50074274     2.39900
Eu1696     Eu  0.00025367  0.93754591  0.50075541     2.39800
O1697       O  0.46898794  0.96915926  0.53164596    -0.93000
O1698       O  0.03055159  0.96917192  0.96980566    -0.91900
C1699       C  0.00112701  0.92218358  0.92163082     1.02200
C1700       C  0.00018539  0.92130993  0.57929417     1.00900
C1701       C  0.07854297  0.50015943  0.92196418     1.00300
C1702       C  0.42054300  0.49845412  0.92291892     1.02300
C1703       C  0.42330661  0.49723469  0.57979080     1.01200
C1704       C  0.07664071  0.50035134  0.57929946     1.00100
C1705       C  0.07900655  0.92217420  0.50231947     1.00100
C1706       C  0.42008556  0.92311453  0.50358767     1.02800
H1707       H  0.04376048  0.95602571  0.54476230     0.30100
O1708       O  0.03113196  0.96860674  0.53186692    -1.05100
H1709       H  0.45706485  0.95566928  0.95712685     0.32200
O1710       O  0.46973074  0.96845582  0.96950956    -1.07700
O1711       O  0.00276038  0.70122506  0.66179537    -0.80300
O1712       O  0.99884606  0.69791148  0.83536533    -0.81800
O1713       O  0.04815523  0.66165910  0.74818738    -0.78800
O1714       O  0.45072187  0.66204841  0.74798898    -0.77200
O1715       O  0.41446210  0.69935760  0.74838378    -0.79000
O1716       O  0.08451240  0.69886396  0.74853391    -0.79900
O1717       O  0.99904794  0.66118874  0.79842186    -0.81300
O1718       O  0.00188390  0.66444704  0.69882237    -0.81600
Eu1719     Eu  0.99942823  0.68813309  0.74928124     2.39200
O1720       O  0.46896784  0.71800195  0.78020777    -0.89100
O1721       O  0.03104960  0.71946314  0.71935304    -0.92700
C1722       C  0.00293705  0.67310692  0.67062822     1.02000
C1723       C  0.99884444  0.66979688  0.82655356     1.01800
C1724       C  0.07597639  0.67056431  0.74782699     1.01800
C1725       C  0.42284334  0.67104194  0.74794678     0.99600
H1726       H  0.04282257  0.70531481  0.79344108     0.29400
O1727       O  0.03032030  0.71845580  0.78087429    -1.01500
H1728       H  0.45683137  0.70622519  0.70483478     0.29400
O1729       O  0.46926571  0.71881940  0.71784123    -1.04000
O1730       O  0.99986466  0.79771074  0.83905498    -0.81200
O1731       O  0.99890660  0.80043156  0.66361502    -0.80800
O1732       O  0.08484242  0.74813312  0.80186249    -0.79200
O1733       O  0.41235370  0.74888700  0.79866047    -0.82500
O1734       O  0.41458058  0.75146149  0.69883573    -0.80400
O1735       O  0.08788809  0.75219225  0.70153153    -0.79000
O1736       O  0.04889429  0.83879325  0.75152461    -0.80600
O1737       O  0.45126753  0.83844577  0.74931250    -0.82500
O1738       O  0.08537367  0.80175514  0.75233079    -0.79200
O1739       O  0.41479020  0.80141843  0.74844170    -0.81900
O1740       O  0.04834113  0.74723846  0.83897411    -0.77600
O1741       O  0.05126995  0.75216064  0.66461676    -0.77700
O1742       O  0.45117685  0.75013228  0.66177251    -0.77300
O1743       O  0.44903335  0.74697195  0.83544077    -0.80800
O1744       O  0.99978983  0.83488144  0.80234546    -0.80200
O1745       O  0.99984350  0.83711658  0.70079225    -0.78600
Eu1746     Eu  0.99930429  0.74888602  0.81208436     2.39800
Eu1747     Eu  0.00059427  0.75050617  0.68824970     2.39600
Eu1748     Eu  0.06144772  0.75031473  0.75088341     2.38400
Eu1749     Eu  0.43866772  0.74997177  0.74928059     2.39900
Eu1750     Eu  0.99997077  0.81203223  0.75099772     2.39800
O1751       O  0.47016113  0.78068345  0.71914085    -0.93000
O1752       O  0.03050869  0.78076389  0.78212061    -0.91900
C1753       C  0.99990312  0.82589749  0.83054458     1.02200
C1754       C  0.99890432  0.82836827  0.67268379     1.00900
C1755       C  0.07630202  0.74717809  0.83015443     1.00300
C1756       C  0.42096627  0.74765469  0.82679353     1.02300
C1757       C  0.42323520  0.75105189  0.67061879     1.01200
C1758       C  0.07927478  0.75280764  0.67336612     1.00100
C1759       C  0.07686279  0.83014929  0.75216737     1.00100
C1760       C  0.42338361  0.82973822  0.74829822     1.02800
H1761       H  0.04363003  0.79455759  0.70725462     0.30100
O1762       O  0.03095990  0.78152751  0.71970549    -1.05100
H1763       H  0.45615064  0.79255182  0.79422005     0.32200
O1764       O  0.46896550  0.78011043  0.78142624    -1.07700
O1765       O  0.33601660  0.00153719  0.69896245    -0.80300
O1766       O  0.16515638  0.00128017  0.69862397    -0.81800
O1767       O  0.25236938  0.95055353  0.66425554    -0.78800
O1768       O  0.24620020  0.54977336  0.66179203    -0.77200
O1769       O  0.24714649  0.58619117  0.69919010    -0.79000
O1770       O  0.25231304  0.91358615  0.70109232    -0.79900
O1771       O  0.20169124  0.00110683  0.66161229    -0.81300
O1772       O  0.29955215  0.00151154  0.66192192    -0.81600
Eu1773     Eu  0.25073653  0.00110108  0.68815015     2.39200
O1774       O  0.21902184  0.53160038  0.71840886    -0.89100
O1775       O  0.28168685  0.97034595  0.71942044    -0.92700
C1776       C  0.32740026  0.00150540  0.67068770     1.02000
C1777       C  0.17374888  0.00118164  0.67037551     1.01800
C1778       C  0.25284007  0.92233243  0.67291091     1.01800
C1779       C  0.24594597  0.57771204  0.67098884     0.99600
H1780       H  0.20734849  0.95680472  0.70615453     0.29400
O1781       O  0.21982660  0.96970901  0.71878440    -1.01500
H1782       H  0.29267712  0.54483804  0.70559127     0.29400
O1783       O  0.28026629  0.53190126  0.71849172    -1.04000
O1784       O  0.16178583  0.00109774  0.79767978    -0.81200
O1785       O  0.33763140  0.00418446  0.80036398    -0.80800
O1786       O  0.20177976  0.91287410  0.75212704    -0.79200
O1787       O  0.20015229  0.58875633  0.75030635    -0.82500
O1788       O  0.29807843  0.58941756  0.74968449    -0.80400
O1789       O  0.30037282  0.91359773  0.75114201    -0.79000
O1790       O  0.24977757  0.95331530  0.83901352    -0.80600
O1791       O  0.25113223  0.55042560  0.83805140    -0.82500
O1792       O  0.25004781  0.91662453  0.80208074    -0.79200
O1793       O  0.25108566  0.58703565  0.80072833    -0.81900
O1794       O  0.16542427  0.95004054  0.75125078    -0.77600
O1795       O  0.33695137  0.95058137  0.75020157    -0.77700
O1796       O  0.33464135  0.55241259  0.74976556    -0.77300
O1797       O  0.16393678  0.55150745  0.74873164    -0.80800
O1798       O  0.19833109  0.00142061  0.83459609    -0.80200
O1799       O  0.30047030  0.00318671  0.83698247    -0.78600
Eu1800     Eu  0.18921321  0.00136317  0.74921776     2.39800
Eu1801     Eu  0.31243290  0.00147160  0.75013851     2.39600
Eu1802     Eu  0.25087875  0.93951000  0.75077452     2.38400
Eu1803     Eu  0.24929054  0.56258711  0.74994998     2.39900
Eu1804     Eu  0.25014519  0.00220213  0.81201956     2.39800
O1805       O  0.28028789  0.53178255  0.78071260    -0.93000
O1806       O  0.21989556  0.97096581  0.78095296    -0.91900
C1807       C  0.17020770  0.00094100  0.82584057     1.02200
C1808       C  0.32859759  0.00433609  0.82847676     1.00900
C1809       C  0.17382353  0.92166098  0.75231641     1.00300
C1810       C  0.17230962  0.57982897  0.74951321     1.02300
C1811       C  0.32601932  0.58069641  0.74980101     1.01200
C1812       C  0.32833247  0.92231391  0.75070535     1.00100
C1813       C  0.24981175  0.92525875  0.83030029     1.00100
C1814       C  0.25182895  0.57848130  0.82905720     1.02800
H1815       H  0.29418590  0.95825164  0.79467947     0.30100
O1816       O  0.28155513  0.97074442  0.78170234    -1.05100
H1817       H  0.20559818  0.54436626  0.79360668     0.32200
O1818       O  0.21831528  0.53170239  0.78091666    -1.07700
O1819       O  0.20123878  0.66160730  0.00014138    -0.80300
O1820       O  0.20004870  0.83645154  0.99675428    -0.81800
O1821       O  0.16240735  0.75064779  0.54924547    -0.78800
O1822       O  0.16512831  0.74954601  0.94806699    -0.77200
O1823       O  0.20192101  0.75063727  0.91127370    -0.79000
O1824       O  0.19866074  0.75234843  0.58647210    -0.79900
O1825       O  0.16315153  0.79977010  0.99564577    -0.81300
O1826       O  0.16498490  0.69880768  0.99961154    -0.81600
Eu1827     Eu  0.18879017  0.75007468  0.99867363     2.39200
O1828       O  0.22023913  0.78138386  0.96836026    -0.89100
O1829       O  0.21943442  0.71958707  0.53226958    -0.92700
C1830       C  0.17336289  0.67042570  0.99999878     1.02000
C1831       C  0.17192789  0.82786004  0.99547286     1.01800
C1832       C  0.17071065  0.75169508  0.57745962     1.01800
C1833       C  0.17384349  0.74989449  0.91988552     0.99600
H1834       H  0.20618649  0.79482124  0.54304893     0.29400
O1835       O  0.21898862  0.78166594  0.53074405    -1.01500
H1836       H  0.20739764  0.70635212  0.95526775     0.29400
O1837       O  0.21990953  0.71909961  0.96822253    -1.04000
O1838       O  0.30199695  0.83585321  0.00058964    -0.81200
O1839       O  0.29868402  0.66107493  0.00075338    -0.80800
O1840       O  0.25157512  0.80343990  0.58480921    -0.79200
O1841       O  0.25293154  0.79986864  0.91168001    -0.82500
O1842       O  0.25211811  0.70115930  0.91268630    -0.80400
O1843       O  0.24977030  0.70261455  0.59002899    -0.79000
O1844       O  0.33491853  0.75146868  0.55263294    -0.80600
O1845       O  0.33923280  0.74754074  0.95220477    -0.82500
O1846       O  0.29843447  0.75331710  0.58974793    -0.79200
O1847       O  0.30266986  0.74829818  0.91532353    -0.81900
O1848       O  0.25185182  0.83995733  0.54751382    -0.77600
O1849       O  0.24931225  0.66534294  0.55345370    -0.77700
O1850       O  0.25058335  0.66409713  0.94951809    -0.77300
O1851       O  0.25279991  0.83637469  0.94880350    -0.80800
O1852       O  0.33837129  0.79858665  0.00080285    -0.80200
O1853       O  0.33517679  0.69796451  0.00149202    -0.78600
Eu1854     Eu  0.25092645  0.81227143  0.99943684     2.39800
Eu1855     Eu  0.25000749  0.68813638  0.00019763     2.39600
Eu1856     Eu  0.24954884  0.75164711  0.56287403     2.38400
Eu1857     Eu  0.25144587  0.75042397  0.93794415     2.39900
Eu1858     Eu  0.31189791  0.74923310  0.00086571     2.39800
O1859       O  0.28142326  0.71877380  0.96931014    -0.93000
O1860       O  0.28085537  0.78111378  0.53111920    -0.91900
C1861       C  0.33002268  0.82684069  0.00074778     1.02200
C1862       C  0.32661239  0.66970997  0.00138001     1.00900
C1863       C  0.25234504  0.83161099  0.57576743     1.00300
C1864       C  0.25322933  0.82789950  0.92054276     1.02300
C1865       C  0.25126107  0.67308661  0.92137045     1.01200
C1866       C  0.24937449  0.67446727  0.58147735     1.00100
C1867       C  0.32635760  0.75295921  0.58086221     1.00100
C1868       C  0.33069367  0.74731570  0.92406418     1.02800
H1869       H  0.29331216  0.70678491  0.54660695     0.30100
O1870       O  0.28077060  0.71926933  0.53327762    -1.05100
H1871       H  0.29543432  0.79348319  0.95649362     0.32200
O1872       O  0.28213629  0.78090561  0.96923836    -1.07700
C1873       C  0.26227362  0.62880008  0.65416735    -0.12400
C1874       C  0.24568891  0.60224343  0.64787673     0.04600
C1875       C  0.22968595  0.60014979  0.62002653    -0.07700
C1876       C  0.23130420  0.62412506  0.59898767    -0.08400
C1877       C  0.24821536  0.65049491  0.60512799    -0.03000
C1878       C  0.26353421  0.65290545  0.63330471     0.03800
N1879       N  0.28114880  0.67911152  0.64102153     0.66300
H1880       H  0.27480570  0.63078710  0.67538096     0.15200
H1881       H  0.21869134  0.62235482  0.57785572     0.14900
N1882       N  0.21038312  0.57488044  0.61324377     0.74000
O1883       O  0.27028702  0.69798334  0.65984116    -0.39400
O1884       O  0.30953054  0.67806255  0.63732142    -0.39300
O1885       O  0.18210949  0.57813413  0.61655946    -0.40100
O1886       O  0.21998206  0.55451910  0.59531694    -0.40100
C1887       C  0.25410916  0.84609282  0.63056493    -0.12400
C1888       C  0.25370524  0.85557293  0.59989128     0.04600
C1889       C  0.25409494  0.88738015  0.59366606    -0.07700
C1890       C  0.25431011  0.90830188  0.61775922    -0.08400
C1891       C  0.25391260  0.89872243  0.64844969    -0.03000
C1892       C  0.25416737  0.86698583  0.65456718     0.03800
N1893       N  0.25277066  0.85503961  0.68485759     0.66300
H1894       H  0.25378984  0.82201715  0.63636942     0.15200
H1895       H  0.25440266  0.93241073  0.61207649     0.14900
N1896       N  0.25389999  0.89934603  0.56326767     0.74000
O1897       O  0.22749782  0.84556592  0.69442877    -0.39400
O1898       O  0.27668465  0.84460839  0.69681884    -0.39300
O1899       O  0.22949025  0.91041632  0.55300667    -0.40100
O1900       O  0.27867498  0.90813806  0.55177753    -0.40100
C1901       C  0.25756625  0.87105458  0.84476176    -0.12400
C1902       C  0.25045780  0.90090508  0.85396133     0.04600
C1903       C  0.24462487  0.90634329  0.88529493    -0.07700
C1904       C  0.24633389  0.88230478  0.90624610    -0.08400
C1905       C  0.25334461  0.85241289  0.89701464    -0.03000
C1906       C  0.25919230  0.84699835  0.86567153     0.03800
N1907       N  0.26700178  0.81748186  0.85425854     0.66300
H1908       H  0.26195324  0.86603935  0.82093616     0.15200
H1909       H  0.24129328  0.88720873  0.92998422     0.14900
N1910       N  0.23539356  0.93555760  0.89641625     0.74000
O1911       O  0.24661661  0.80178210  0.84166026    -0.39400
O1912       O  0.29433346  0.81213454  0.84754507    -0.39300
O1913       O  0.20762883  0.93990000  0.90203666    -0.40100
O1914       O  0.25477578  0.95212895  0.90955551    -0.40100
C1915       C  0.24204186  0.63208953  0.84547365    -0.12400
C1916       C  0.25286310  0.60271542  0.85277680     0.04600
C1917       C  0.26374242  0.59727920  0.88277030    -0.07700
C1918       C  0.26258876  0.62047116  0.90450494    -0.08400
C1919       C  0.25126107  0.64941094  0.89738851    -0.03000
C1920       C  0.24073477  0.65519018  0.86748514     0.03800
N1921       N  0.22774066  0.68403020  0.85942143     0.66300
H1922       H  0.23415841  0.63709386  0.82262721     0.15200
H1923       H  0.27091469  0.61579588  0.92721089     0.14900
N1924       N  0.27729610  0.56896005  0.89160424     0.74000
O1925       O  0.24432726  0.70426426  0.84741772    -0.39400
O1926       O  0.20216658  0.69139925  0.87015654    -0.39300
O1927       O  0.30586251  0.56691046  0.89123721    -0.40100
O1928       O  0.26249974  0.55132208  0.90893683    -0.40100
C1929       C  0.36899910  0.65633500  0.75644713    -0.12400
C1930       C  0.39845041  0.64754005  0.74790351     0.04600
C1931       C  0.40347034  0.61670637  0.73968813    -0.07700
C1932       C  0.37961129  0.59573612  0.74074976    -0.08400
C1933       C  0.35019690  0.60445493  0.74943480    -0.03000
C1934       C  0.34500914  0.63545657  0.75708863     0.03800
N1935       N  0.31583259  0.64646669  0.76607244     0.66300
H1936       H  0.36433891  0.67973533  0.76297101     0.15200
H1937       H  0.38423799  0.57240461  0.73396085     0.14900
N1938       N  0.43192435  0.60633556  0.72812512     0.74000
O1939       O  0.31028375  0.64950449  0.79420771    -0.39400
O1940       O  0.30065616  0.66194829  0.74709148    -0.39300
O1941       O  0.44907576  0.59113780  0.74555445    -0.40100
O1942       O  0.43454443  0.60302722  0.69961967    -0.40100
C1943       C  0.38077960  0.90536102  0.73745546    -0.12400
C1944       C  0.35236120  0.89832523  0.75021248     0.04600
C1945       C  0.34767480  0.86846883  0.76178321    -0.07700
C1946       C  0.37087051  0.84669898  0.76006639    -0.08400
C1947       C  0.39938338  0.85376184  0.74778802    -0.03000
C1948       C  0.40420447  0.88367593  0.73629815     0.03800
N1949       N  0.43226969  0.89244409  0.72247959     0.66300
H1950       H  0.38490912  0.92788719  0.72798221     0.15200
H1951       H  0.36673525  0.82419849  0.76934273     0.14900
N1952       N  0.32048880  0.86023142  0.77751708     0.74000
O1953       O  0.43470165  0.89116395  0.69376581    -0.39400
O1954       O  0.44997383  0.90961593  0.73715506    -0.39300
O1955       O  0.30219550  0.84214429  0.76480589    -0.40100
O1956       O  0.31991556  0.86271028  0.80623398    -0.40100
C1957       C  0.11920060  0.59544881  0.73815583    -0.12400
C1958       C  0.14804417  0.60349653  0.74908387     0.04600
C1959       C  0.15268594  0.63386130  0.75909594    -0.07700
C1960       C  0.12888412  0.65488569  0.75828127    -0.08400
C1961       C  0.10010922  0.64688411  0.74742213    -0.03000
C1962       C  0.09538898  0.61661079  0.73714355     0.03800
N1963       N  0.06713533  0.60696719  0.72446698     0.66300
H1964       H  0.11504925  0.57256637  0.72977357     0.15200
H1965       H  0.13305144  0.67771786  0.76680384     0.14900
N1966       N  0.18082659  0.64383164  0.77159967     0.74000
O1967       O  0.06361050  0.60846630  0.69587802    -0.39400
O1968       O  0.05073989  0.58882876  0.73969063    -0.39300
O1969       O  0.19777040  0.66049960  0.75532917    -0.40100
O1970       O  0.18302612  0.64546438  0.80028641    -0.40100
C1971       C  0.13121384  0.84521405  0.75810191    -0.12400
C1972       C  0.10107288  0.85421947  0.75280820     0.04600
C1973       C  0.09524353  0.88586052  0.74850646    -0.07700
C1974       C  0.11919925  0.90690243  0.74855705    -0.08400
C1975       C  0.14940704  0.89782616  0.75338773    -0.03000
C1976       C  0.15507759  0.86635627  0.75884489     0.03800
N1977       N  0.18460002  0.85506826  0.76613985     0.66300
H1978       H  0.13654185  0.82138812  0.76222984     0.15200
H1979       H  0.11382297  0.93074335  0.74458728     0.14900
N1980       N  0.06533263  0.89753205  0.74384191     0.74000
O1981       O  0.19153529  0.85171053  0.79392075    -0.39400
O1982       O  0.19826719  0.83911498  0.74654367    -0.39300
O1983       O  0.05230278  0.91094837  0.76572908    -0.40100
O1984       O  0.05695819  0.90348407  0.71691322    -0.40100
C1985       C  0.37068101  0.76433534  0.65495992    -0.12400
C1986       C  0.39905089  0.75196788  0.64706013     0.04600
C1987       C  0.40321962  0.74062947  0.61713215    -0.07700
C1988       C  0.37924465  0.74146412  0.59631006    -0.08400
C1989       C  0.35073188  0.75341551  0.60428125    -0.03000
C1990       C  0.34666426  0.76518259  0.63409625     0.03800
N1991       N  0.31885404  0.77903785  0.64356018     0.66300
H1992       H  0.36702489  0.77374086  0.67756163     0.15200
H1993       H  0.38299171  0.73200160  0.57374938     0.14900
N1994       N  0.43107789  0.72694696  0.60756190     0.74000
O1995       O  0.30066511  0.76362647  0.65968933    -0.39400
O1996       O  0.31736313  0.80780282  0.64448792    -0.39300
O1997       O  0.43336660  0.69822893  0.60825555    -0.40100
O1998       O  0.44837987  0.74186608  0.59005274    -0.40100
C1999       C  0.09486859  0.74515138  0.61933616    -0.12400
C2000       C  0.10289904  0.75388000  0.64907464     0.04600
C2001       C  0.13314045  0.76316261  0.65455229    -0.07700
C2002       C  0.15447707  0.76243381  0.63086097    -0.08400
C2003       C  0.14668985  0.75256779  0.60137661    -0.03000
C2004       C  0.11620654  0.74411193  0.59570629     0.03800
N2005       N  0.10635921  0.73352239  0.56649504     0.66300
H2006       H  0.07176799  0.73860314  0.61428205     0.15200
H2007       H  0.17739924  0.76988634  0.63573476     0.14900
N2008       N  0.14266018  0.77436633  0.68362001     0.74000
O2009       O  0.10648969  0.70518883  0.56131464    -0.39400
O2010       O  0.08967805  0.75063166  0.55042067    -0.39300
O2011       O  0.15722191  0.75675970  0.70117313    -0.40100
O2012       O  0.14482431  0.80284754  0.68736623    -0.40100
C2013       C  0.12032297  0.73893050  0.90521844    -0.12400
C2014       C  0.14945270  0.74867318  0.89631086     0.04600
C2015       C  0.15404018  0.75701992  0.86542015    -0.07700
C2016       C  0.13001625  0.75572112  0.84467271    -0.08400
C2017       C  0.10076903  0.74664790  0.85364222    -0.03000
C2018       C  0.09611856  0.73800928  0.88452594     0.03800
N2019       N  0.06725857  0.72807171  0.89562258     0.66300
H2020       H  0.11603814  0.73195294  0.92862395     0.15200
H2021       H  0.13433430  0.76295503  0.82135010     0.14900
N2022       N  0.18219217  0.76899971  0.85475896     0.74000
O2023       O  0.06276346  0.69982172  0.89919205    -0.39400
O2024       O  0.05124298  0.74665382  0.91063034    -0.39300
O2025       O  0.19817238  0.75282659  0.83714535    -0.40100
O2026       O  0.18531806  0.79762604  0.85399632    -0.40100
C2027       C  0.40615977  0.74011895  0.88125320    -0.12400
C2028       C  0.39729927  0.74698399  0.85115333     0.04600
C2029       C  0.36619920  0.75289974  0.84548493    -0.07700
C2030       C  0.34545789  0.75298094  0.86961414    -0.08400
C2031       C  0.35431723  0.74644386  0.89972293    -0.03000
C2032       C  0.38520440  0.73937153  0.90529760     0.03800
N2033       N  0.39582488  0.72991729  0.93468520     0.66300
H2034       H  0.42960041  0.73461789  0.88633300     0.15200
H2035       H  0.32198360  0.75815535  0.86441178     0.14900
N2036       N  0.35475030  0.75881780  0.81554464     0.74000
O2037       O  0.39757909  0.70168290  0.94031191    -0.39400
O2038       O  0.41220129  0.74800710  0.94978817    -0.39300
O2039       O  0.34099773  0.73764550  0.80183296    -0.40100
O2040       O  0.34918825  0.78608809  0.80807737    -0.40100
C2041       C  0.34648700  0.88010043  0.01174076    -0.12400
C2042       C  0.35353752  0.85032371  0.50224257     0.04600
C2043       C  0.38421419  0.84517587  0.49406872    -0.07700
C2044       C  0.40507878  0.86916494  0.49507263    -0.08400
C2045       C  0.39655827  0.89868426  0.50419687    -0.03000
C2046       C  0.36808785  0.90344082  0.01372489     0.03800
N2047       N  0.35880073  0.93195520  0.02654588     0.66300
H2048       H  0.32344057  0.88503987  0.01851177     0.15200
H2049       H  0.42819095  0.86454367  0.48794830     0.14900
N2050       N  0.39473285  0.81622585  0.48347066     0.74000
O2051       O  0.34313474  0.94994740  0.01042369    -0.39400
O2052       O  0.35289860  0.93649713  0.55225563    -0.39300
O2053       O  0.39670256  0.81434227  0.95116914    -0.40100
O2054       O  0.41001107  0.79967869  0.50144480    -0.40100
C2055       C  0.36943242  0.59375644  0.99709529    -0.12400
C2056       C  0.40041165  0.60356232  0.50556515     0.04600
C2057       C  0.40511370  0.63395324  0.51559173    -0.07700
C2058       C  0.38101480  0.65485989  0.51527191    -0.08400
C2059       C  0.35210077  0.64665490  0.50460658    -0.03000
C2060       C  0.34538034  0.61450432  0.99702492     0.03800
N2061       N  0.31582342  0.60274568  0.99105905     0.66300
H2062       H  0.36443414  0.57007842  0.99203493     0.15200
H2063       H  0.38519634  0.67787423  0.52327410     0.14900
N2064       N  0.43392740  0.64434601  0.52622474     0.74000
O2065       O  0.30869763  0.59753355  0.96368251    -0.39400
O2066       O  0.30280992  0.58866849  0.49499906    -0.39300
O2067       O  0.44907554  0.66062991  0.00084547    -0.40100
O2068       O  0.43839464  0.64590160  0.55466533    -0.40100
C2069       C  0.15536474  0.88091522  0.00694439    -0.12400
C2070       C  0.14743966  0.85113954  0.49841960     0.04600
C2071       C  0.11812258  0.84679912  0.48591413    -0.07700
C2072       C  0.09641765  0.87012919  0.48773897    -0.08400
C2073       C  0.10283137  0.89801652  0.50205121    -0.03000
C2074       C  0.13364098  0.90415328  0.00912519     0.03800
N2075       N  0.14242903  0.93203922  0.02338779     0.66300
H2076       H  0.17795942  0.88533521  0.01560894     0.15200
H2077       H  0.07440586  0.86642989  0.47737817     0.14900
N2078       N  0.10999874  0.81936877  0.47036682     0.74000
O2079       O  0.14346885  0.93286746  0.05218770    -0.39400
O2080       O  0.15802761  0.95095186  0.00827369    -0.39300
O2081       O  0.09369799  0.80004080  0.48415164    -0.40100
O2082       O  0.11060683  0.81917772  0.44152469    -0.40100
C2083       C  0.11969436  0.65584085  0.49997032    -0.12400
C2084       C  0.14985539  0.64597403  0.50325444     0.04600
C2085       C  0.15512571  0.61479403  0.99856715    -0.07700
C2086       C  0.13119080  0.59386294  0.99883459    -0.08400
C2087       C  0.10091919  0.60352581  0.50221727    -0.03000
C2088       C  0.09550785  0.63527931  0.49891601     0.03800
N2089       N  0.06604413  0.64741916  0.49278975     0.66300
H2090       H  0.11456077  0.67990568  0.49726508     0.15200
H2091       H  0.13677461  0.56980815  0.99737496     0.14900
N2092       N  0.18520914  0.60284458  0.99621221     0.74000
O2093       O  0.05215853  0.66107508  0.51398192    -0.39400
O2094       O  0.05241407  0.65807481  0.98146834    -0.39300
O2095       O  0.19434912  0.59160770  0.53323280    -0.40100
O2096       O  0.19548801  0.59657299  0.97003055    -0.40100
C2097       C  0.34687657  0.98763904  0.87962995    -0.12400
C2098       C  0.35228057  0.50310735  0.85172661     0.04600
C2099       C  0.38000555  0.51922204  0.84924915    -0.07700
C2100       C  0.40179180  0.51693129  0.87251353    -0.08400
C2101       C  0.39670233  0.49915276  0.89876699    -0.03000
C2102       C  0.36879417  0.98562213  0.90274798     0.03800
N2103       N  0.36243550  0.96675232  0.92865513     0.66300
H2104       H  0.32585148  0.97508394  0.88235523     0.15200
H2105       H  0.42267152  0.52981272  0.87027160     0.14900
N2106       N  0.38605885  0.53924107  0.82414815     0.74000
O2107       O  0.34389840  0.47514048  0.94687492    -0.39400
O2108       O  0.36515662  0.93818234  0.92604386    -0.39300
O2109       O  0.38284713  0.56761397  0.82802609    -0.40100
O2110       O  0.40282699  0.03115862  0.80344044    -0.40100
C2111       C  0.09399435  0.49265228  0.86770304    -0.12400
C2112       C  0.10239688  0.49982351  0.89777546     0.04600
C2113       C  0.13424858  0.00026997  0.90472478    -0.07700
C2114       C  0.15527561  0.00067459  0.88075023    -0.08400
C2115       C  0.14626609  0.49799243  0.85007341    -0.03000
C2116       C  0.11537019  0.49132925  0.84406631     0.03800
N2117       N  0.10506617  0.48230101  0.81448945     0.66300
H2118       H  0.07056383  0.48755784  0.86233850     0.15200
H2119       H  0.17914862  0.00146179  0.88657636     0.14900
N2120       N  0.14597260  0.00089331  0.93511029     0.74000
O2121       O  0.09549254  0.97285709  0.80214309    -0.39400
O2122       O  0.08948226  0.50090401  0.79896602    -0.39300
O2123       O  0.15688570  0.97657707  0.94609449    -0.40100
O2124       O  0.14750439  0.54186785  0.93973870    -0.40100
C2125       C  0.12014726  0.01049876  0.65544322    -0.12400
C2126       C  0.14898131  0.49880850  0.64586170     0.04600
C2127       C  0.15298402  0.48642489  0.61623994    -0.07700
C2128       C  0.12900729  0.48704874  0.59531763    -0.08400
C2129       C  0.10088454  0.50012385  0.60278696    -0.03000
C2130       C  0.09613333  0.01086657  0.63460730     0.03800
N2131       N  0.06713721  0.02091522  0.64522917     0.66300
H2132       H  0.11559538  0.01760466  0.67871326     0.15200
H2133       H  0.13249457  0.47693771  0.57299472     0.14900
N2134       N  0.18078827  0.47248201  0.60688335     0.74000
O2135       O  0.05081120  0.00244664  0.66009630    -0.39400
O2136       O  0.06884196  0.55695669  0.63883032    -0.39300
O2137       O  0.18816358  0.95368078  0.60535664    -0.40100
O2138       O  0.19809506  0.48715387  0.58914583    -0.40100
C2139       C  0.37136526  0.51165765  0.59607395    -0.12400
C2140       C  0.39906440  0.49759752  0.60337845     0.04600
C2141       C  0.40416215  0.98946775  0.63413719    -0.07700
C2142       C  0.38061681  0.99138035  0.65541745    -0.08400
C2143       C  0.35144521  0.50105554  0.64698134    -0.03000
C2144       C  0.34777005  0.51365222  0.61738273     0.03800
N2145       N  0.32102254  0.52997941  0.60878037     0.66300
H2146       H  0.36810157  0.52194773  0.57374019     0.15200
H2147       H  0.38529332  0.98467263  0.67881616     0.14900
N2148       N  0.43262550  0.97754213  0.64427226     0.74000
O2149       O  0.32130776  0.55876597  0.61014896    -0.39400
O2150       O  0.30061678  0.99904810  0.59079758    -0.39300
O2151       O  0.44764636  0.48248060  0.66060477    -0.40100
O2152       O  0.43545429  0.94898538  0.64708256    -0.40100
C2153       C  0.51008667  0.59367701  0.86945065    -0.12400
C2154       C  0.99575341  0.60319447  0.89936106     0.04600
C2155       C  0.98507015  0.63337843  0.90361782    -0.07700
C2156       C  0.98644529  0.65434440  0.87954434    -0.08400
C2157       C  0.99800085  0.64615878  0.85082114    -0.03000
C2158       C  0.51188169  0.61474594  0.84546849     0.03800
N2159       N  0.52540449  0.60495587  0.81746953     0.66300
H2160       H  0.51833044  0.57068987  0.86549692     0.15200
H2161       H  0.97780028  0.67721020  0.88339106     0.14900
N2162       N  0.97165218  0.64324126  0.93157726     0.74000
O2163       O  0.55397768  0.60477067  0.81550419    -0.39400
O2164       O  0.51038532  0.58759282  0.80021561    -0.39300
O2165       O  0.98586862  0.66248762  0.94747036    -0.40100
O2166       O  0.94316626  0.64173876  0.93415871    -0.40100
C2167       C  0.00740836  0.87995180  0.84563864    -0.12400
C2168       C  0.00034954  0.84993090  0.85447297     0.04600
C2169       C  0.48846588  0.84424834  0.88518148    -0.07700
C2170       C  0.48993912  0.86804971  0.90644319    -0.08400
C2171       C  0.00145276  0.89793277  0.89794455    -0.03000
C2172       C  0.00804530  0.90377830  0.86675164     0.03800
N2173       N  0.01613135  0.93346252  0.85582235     0.66300
H2174       H  0.01281595  0.88520676  0.82202121     0.15200
H2175       H  0.48101509  0.86407735  0.92921616     0.14900
N2176       N  0.47409228  0.81646189  0.89437069     0.74000
O2177       O  0.04382459  0.93945114  0.85161130    -0.39400
O2178       O  0.99644458  0.94902176  0.84175874    -0.39300
O2179       O  0.48815344  0.79856727  0.91205483    -0.40100
O2180       O  0.44551984  0.81497740  0.89329149    -0.40100
C2181       C  0.01913950  0.87598166  0.65078709    -0.12400
C2182       C  0.99825296  0.85217395  0.64904965     0.04600
C2183       C  0.47944057  0.84829199  0.62170037    -0.07700
C2184       C  0.48087697  0.87118179  0.59923324    -0.08400
C2185       C  0.00003523  0.89749443  0.60326201    -0.03000
C2186       C  0.02060730  0.89825308  0.62797429     0.03800
N2187       N  0.04491379  0.91969698  0.62902381     0.66300
H2188       H  0.03547904  0.87641633  0.66922191     0.15200
H2189       H  0.46869145  0.86799748  0.57798408     0.14900
N2190       N  0.46151605  0.82167536  0.61653568     0.74000
O2191       O  0.04385884  0.94062521  0.64870737    -0.39400
O2192       O  0.07043550  0.91169320  0.61863999    -0.39300
O2193       O  0.43806703  0.81726288  0.63255465    -0.40100
O2194       O  0.47303095  0.79962791  0.60211045    -0.40100
C2195       C  0.01051256  0.63002815  0.59532659    -0.12400
C2196       C  0.00115697  0.60060446  0.60396858     0.04600
C2197       C  0.49214288  0.59467333  0.63454155    -0.07700
C2198       C  0.49349167  0.61862066  0.65548664    -0.08400
C2199       C  0.00351779  0.64867082  0.64718253    -0.03000
C2200       C  0.01163950  0.65391033  0.61633955     0.03800
N2201       N  0.02220865  0.68286844  0.60580625     0.66300
H2202       H  0.01726017  0.63474750  0.57194621     0.15200
H2203       H  0.48477421  0.61476065  0.67825277     0.14900
N2204       N  0.47785849  0.56686629  0.64392988     0.74000
O2205       O  0.05036230  0.68641878  0.60208495    -0.39400
O2206       O  0.00419215  0.69977269  0.59105735    -0.39300
O2207       O  0.49096739  0.55018384  0.66345002    -0.40100
O2208       O  0.44960443  0.56407379  0.64024948    -0.40100
O2209       O  0.50073794  0.04944966  0.08775174    -0.75900
O2210       O  0.49866221  0.04860633  0.41236133    -0.81800
O2211       O  0.54887087  0.08898794  0.99963422    -0.78800
O2212       O  0.94965085  0.08696101  0.00020317    -0.77200
O2213       O  0.91353560  0.04962376  0.00075176    -0.79000
O2214       O  0.58592643  0.05240364  0.99840424    -0.79900
O2215       O  0.49908298  0.08560123  0.44910396    -0.81300
O2216       O  0.50085151  0.08609740  0.05049651    -0.81600
Eu2217     Eu  0.50018966  0.06196360  0.99984078     2.39200
O2218       O  0.96961716  0.03045212  0.46941899    -0.89100
O2219       O  0.53149515  0.03177110  0.03122274    -0.92700
C2220       C  0.50077932  0.07748575  0.07878760     1.02000
C2221       C  0.49858301  0.07680117  0.42099306     1.01800
C2222       C  0.57688285  0.08053902  0.99874556     1.01800
C2223       C  0.92183566  0.07793505  0.00068207     0.99600
H2224       H  0.54352315  0.04277813  0.45607132     0.29400
O2225       O  0.53085864  0.03022560  0.46887654    -1.01500
H2226       H  0.95613906  0.04324289  0.04403541     0.29400
O2227       O  0.96884205  0.03058058  0.03143908    -1.04000
O2228       O  0.49867883  0.45055880  0.41165981    -0.81200
O2229       O  0.50181811  0.44976378  0.08852676    -0.80800
O2230       O  0.58785318  0.99829499  0.45165020    -0.79200
O2231       O  0.91305748  0.99825870  0.45087511    -0.82500
O2232       O  0.91466461  0.99987540  0.05190889    -0.80400
O2233       O  0.58622750  0.00223301  0.05089760    -0.79000
O2234       O  0.55125379  0.41374163  0.00090242    -0.80600
O2235       O  0.94932686  0.41377524  0.00046830    -0.82500
O2236       O  0.58761820  0.45089466  0.99977482    -0.79200
O2237       O  0.91251352  0.45057411  0.00038252    -0.81900
O2238       O  0.55114878  0.99795341  0.41489010    -0.77600
O2239       O  0.54985465  0.00126623  0.08807799    -0.77700
O2240       O  0.95115867  0.00026982  0.08892592    -0.77300
O2241       O  0.94993143  0.99881670  0.41406267    -0.80800
O2242       O  0.49854674  0.41350904  0.44869548    -0.80200
O2243       O  0.49943165  0.41268734  0.05179861    -0.78600
Eu2244     Eu  0.49985523  0.99881802  0.43838629     2.39800
Eu2245     Eu  0.50101008  0.99998818  0.06213752     2.39600
Eu2246     Eu  0.56225525  0.00122899  0.99998955     2.38400
Eu2247     Eu  0.93821930  0.99920106  0.00095877     2.39900
Eu2248     Eu  0.50021177  0.43757925  0.00116203     2.39800
O2249       O  0.96980572  0.46819308  0.03097455    -0.93000
O2250       O  0.53108841  0.46839646  0.46952487    -0.91900
C2251       C  0.49804508  0.42239648  0.42042946     1.02200
C2252       C  0.50073398  0.42164801  0.07988222     1.00900
C2253       C  0.57929427  0.99785065  0.42352142     1.00300
C2254       C  0.92175822  0.99819841  0.42269558     1.02300
C2255       C  0.92327493  0.00031592  0.08013178     1.01200
C2256       C  0.57767528  0.00210995  0.07921433     1.00100
C2257       C  0.57928643  0.42268475  0.00024525     1.00100
C2258       C  0.92118786  0.42246474  0.00051368     1.02800
H2259       H  0.54428786  0.45613567  0.04430914     0.30100
O2260       O  0.53144199  0.46867140  0.03159232    -1.05100
H2261       H  0.95655253  0.45753853  0.45541050     0.32200
O2262       O  0.96914417  0.46991767  0.46827828    -1.07700
O2263       O  0.50459298  0.20156545  0.16069163    -0.80300
O2264       O  0.49642294  0.19739681  0.33486392    -0.81800
O2265       O  0.54990015  0.16187524  0.24796730    -0.78800
O2266       O  0.94972946  0.16239182  0.24799908    -0.77200
O2267       O  0.91353766  0.19985502  0.25008279    -0.79000
O2268       O  0.58626531  0.19911822  0.25010876    -0.79900
O2269       O  0.49733205  0.16093314  0.29761819    -0.81300
O2270       O  0.50356582  0.16475387  0.19772121    -0.81600
Eu2271     Eu  0.50061398  0.18781572  0.24856458     2.39200
O2272       O  0.96949606  0.21869336  0.28073299    -0.89100
O2273       O  0.53213840  0.21933869  0.21884847    -0.92700
C2274       C  0.50484130  0.17346943  0.16953539     1.02000
C2275       C  0.49603682  0.16931258  0.32578888     1.01800
C2276       C  0.57773053  0.17083965  0.24879941     1.01800
C2277       C  0.92184587  0.17156758  0.24878194     0.99600
H2278       H  0.54304511  0.20522779  0.29385122     0.29400
O2279       O  0.53068446  0.21823380  0.28098224    -1.01500
H2280       H  0.95680014  0.20588781  0.20585352     0.29400
O2281       O  0.96928508  0.21850610  0.21878253    -1.04000
O2282       O  0.49941822  0.29804224  0.33811382    -0.81200
O2283       O  0.49985720  0.30026238  0.16303633    -0.80800
O2284       O  0.58458541  0.25023764  0.30204397    -0.79200
O2285       O  0.91292368  0.24966735  0.29956317    -0.82500
O2286       O  0.91412539  0.24988035  0.19971602    -0.80400
O2287       O  0.58931883  0.25224863  0.20199830    -0.79000
O2288       O  0.54810459  0.33890886  0.25180989    -0.80600
O2289       O  0.95126683  0.33826594  0.24881370    -0.82500
O2290       O  0.58473030  0.30203728  0.25265768    -0.79200
O2291       O  0.91509738  0.30097345  0.24812383    -0.81900
O2292       O  0.54784314  0.24894155  0.33891520    -0.77600
O2293       O  0.55262129  0.25241204  0.16520339    -0.77700
O2294       O  0.95074708  0.24802808  0.16268234    -0.77300
O2295       O  0.94932016  0.24936452  0.33679900    -0.80800
O2296       O  0.49931532  0.33512793  0.30121276    -0.80200
O2297       O  0.50056809  0.33672482  0.20044862    -0.78600
Eu2298     Eu  0.49874109  0.24862988  0.31169239     2.39800
Eu2299     Eu  0.50159117  0.25035330  0.18767758     2.39600
Eu2300     Eu  0.56190456  0.25019497  0.25091943     2.38400
Eu2301     Eu  0.93879761  0.24996208  0.24994033     2.39900
Eu2302     Eu  0.49982764  0.31151458  0.25037323     2.39800
O2303       O  0.96990025  0.28060444  0.21913817    -0.93000
O2304       O  0.53005875  0.28022572  0.28162887    -0.91900
C2305       C  0.49948208  0.32622622  0.32939449     1.02200
C2306       C  0.49989667  0.32812181  0.17233309     1.00900
C2307       C  0.57588847  0.24981505  0.33026244     1.00300
C2308       C  0.92141596  0.24935893  0.32776150     1.02300
C2309       C  0.92271306  0.24873493  0.17150110     1.01200
C2310       C  0.58064394  0.25294843  0.17384417     1.00100
C2311       C  0.57604916  0.33036706  0.25266644     1.00100
C2312       C  0.92344676  0.32928826  0.24779384     1.02800
H2313       H  0.54425402  0.29450588  0.20720480     0.30100
O2314       O  0.53153716  0.28135363  0.21947928    -1.05100
H2315       H  0.95629925  0.29380522  0.29448947     0.32200
O2316       O  0.96887687  0.28094879  0.28185376    -1.07700
O2317       O  0.83585789  0.49960342  0.19702259    -0.80300
O2318       O  0.66504280  0.49981234  0.19797231    -0.81800
O2319       O  0.74976775  0.44940703  0.16226898    -0.78800
O2320       O  0.74737362  0.04882953  0.16167056    -0.77200
O2321       O  0.74785407  0.08557160  0.19870521    -0.79000
O2322       O  0.74780451  0.41229281  0.19911868    -0.79900
O2323       O  0.70129978  0.49869177  0.16053662    -0.81300
O2324       O  0.79951976  0.50132424  0.15986181    -0.81600
Eu2325     Eu  0.75041632  0.50002888  0.18657825     2.39200
O2326       O  0.71892400  0.03139219  0.21884854    -0.89100
O2327       O  0.78121553  0.46806730  0.21687384    -0.92700
C2328       C  0.82739252  0.50069397  0.16879419     1.02000
C2329       C  0.67347836  0.49886887  0.16964050     1.01800
C2330       C  0.74825260  0.42122141  0.17100865     1.01800
C2331       C  0.74716141  0.07681102  0.17043577     0.99600
H2332       H  0.70638752  0.45653709  0.20530621     0.29400
O2333       O  0.71927872  0.46923072  0.21771627    -1.01500
H2334       H  0.79273088  0.04464652  0.20604200     0.29400
O2335       O  0.78037571  0.03154511  0.21883120    -1.04000
O2336       O  0.66326489  0.49895022  0.29853090    -0.81200
O2337       O  0.83985578  0.49923085  0.29576880    -0.80800
O2338       O  0.70077569  0.41202822  0.25100508    -0.79200
O2339       O  0.70027852  0.08821532  0.25406504    -0.82500
O2340       O  0.79839798  0.08883998  0.25127277    -0.80400
O2341       O  0.79870883  0.41087318  0.24971227    -0.79000
O2342       O  0.74748100  0.45065841  0.33700381    -0.80600
O2343       O  0.75323836  0.04877439  0.33864816    -0.82500
O2344       O  0.74603985  0.41441466  0.29962125    -0.79200
O2345       O  0.75275758  0.08565831  0.30150999    -0.81900
O2346       O  0.66492534  0.44968401  0.25142679    -0.77600
O2347       O  0.83524621  0.44780231  0.24810961    -0.77700
O2348       O  0.83511314  0.05184330  0.25040717    -0.77300
O2349       O  0.66415135  0.05077880  0.25164722    -0.80800
O2350       O  0.70034728  0.49818061  0.33497632    -0.80200
O2351       O  0.80330369  0.49941871  0.33279560    -0.78600
Eu2352     Eu  0.68918588  0.50071905  0.24883911     2.39800
Eu2353     Eu  0.81205090  0.49904480  0.24771539     2.39600
Eu2354     Eu  0.74993333  0.43793283  0.24878946     2.38400
Eu2355     Eu  0.74953253  0.06214016  0.25036937     2.39900
Eu2356     Eu  0.75123039  0.49976210  0.31079632     2.39800
O2357       O  0.78039214  0.03049110  0.28059427    -0.93000
O2358       O  0.72017543  0.46979895  0.27947469    -0.91900
C2359       C  0.67215072  0.49780438  0.32660578     1.02200
C2360       C  0.83144047  0.49952639  0.32393133     1.00900
C2361       C  0.67301730  0.42120985  0.25212909     1.00300
C2362       C  0.67247547  0.07904463  0.25361420     1.02300
C2363       C  0.82634831  0.08010873  0.25121947     1.01200
C2364       C  0.82664300  0.41958214  0.24908914     1.00100
C2365       C  0.74544308  0.42282122  0.32789202     1.00100
C2366       C  0.75391279  0.07691179  0.32977704     1.02800
H2367       H  0.79396559  0.45524061  0.29240288     0.30100
O2368       O  0.78152371  0.46818778  0.27967429    -1.05100
H2369       H  0.70664753  0.04309588  0.29448598     0.32200
O2370       O  0.71913945  0.03059844  0.28141170    -1.07700
O2371       O  0.70142748  0.16174073  0.50028557    -0.80300
O2372       O  0.69956803  0.33588020  0.49645775    -0.81800
O2373       O  0.66158545  0.25050096  0.04763823    -0.78800
O2374       O  0.66588841  0.25124137  0.44733065    -0.77200
O2375       O  0.70222833  0.25151287  0.41012124    -0.79000
O2376       O  0.69801246  0.25020162  0.08469932    -0.79900
O2377       O  0.66288904  0.29897283  0.49549598    -0.81300
O2378       O  0.66487372  0.19860938  0.49944193    -0.81600
Eu2379     Eu  0.68890169  0.24970783  0.49827265     2.39200
O2380       O  0.72029094  0.28069749  0.46787556    -0.89100
O2381       O  0.71824094  0.21867219  0.03074352    -0.92700
C2382       C  0.67346821  0.17030851  0.50018712     1.02000
C2383       C  0.67154571  0.32705931  0.49521389     1.01800
C2384       C  0.67002220  0.25066760  0.07586065     1.01800
C2385       C  0.67429465  0.25190157  0.41904431     0.99600
H2386       H  0.70640802  0.29399253  0.04256693     0.29400
O2387       O  0.71925944  0.28104097  0.03010778    -1.01500
H2388       H  0.70704048  0.20583262  0.45458286     0.29400
O2389       O  0.71958783  0.21863100  0.46742891    -1.04000
O2390       O  0.80098623  0.33669972  0.49858138    -0.81200
O2391       O  0.79876720  0.16174440  0.49896935    -0.80800
O2392       O  0.74970411  0.30066313  0.08587506    -0.79200
O2393       O  0.75008695  0.29921484  0.41091842    -0.82500
O2394       O  0.75192063  0.20004040  0.41255109    -0.80400
O2395       O  0.75026877  0.19986418  0.08732811    -0.79000
O2396       O  0.83488061  0.24926102  0.05276638    -0.80600
O2397       O  0.83878264  0.24676709  0.45094051    -0.82500
O2398       O  0.79788665  0.25112036  0.08938963    -0.79200
O2399       O  0.80208840  0.24762298  0.41404090    -0.81900
O2400       O  0.75136913  0.33761254  0.04877321    -0.77600
O2401       O  0.74908573  0.16329559  0.05009019    -0.77700
O2402       O  0.75120285  0.16326881  0.44972295    -0.77300
O2403       O  0.74925457  0.33633721  0.44749405    -0.80800
O2404       O  0.83755891  0.29968944  0.49965423    -0.80200
O2405       O  0.83541447  0.19845086  0.49964863    -0.78600
Eu2406     Eu  0.75056246  0.31232681  0.49833978     2.39800
Eu2407     Eu  0.75018161  0.18844714  0.49963780     2.39600
Eu2408     Eu  0.74909344  0.24981297  0.06187016     2.38400
Eu2409     Eu  0.75123319  0.24991350  0.43717396     2.39900
Eu2410     Eu  0.81205520  0.24977641  0.49993207     2.39800
O2411       O  0.78142033  0.21908908  0.46882254    -0.93000
O2412       O  0.78063252  0.28021193  0.03119280    -0.91900
C2413       C  0.82901864  0.32789201  0.49918375     1.02200
C2414       C  0.82670312  0.17022447  0.49901543     1.00900
C2415       C  0.75080202  0.32882385  0.07688561     1.00300
C2416       C  0.74905565  0.32733800  0.41938829     1.02300
C2417       C  0.75173029  0.17200037  0.42154023     1.01200
C2418       C  0.75005763  0.17185042  0.07832571     1.00100
C2419       C  0.82596833  0.25046541  0.08092584     1.00100
C2420       C  0.83005232  0.24625860  0.42284421     1.02800
H2421       H  0.79242911  0.20512569  0.04445960     0.30100
O2422       O  0.77998919  0.21809288  0.03151009    -1.05100
H2423       H  0.79502924  0.29379000  0.45489196     0.32200
O2424       O  0.78202655  0.28114435  0.46791037    -1.07700
C2425       C  0.76178002  0.12840158  0.15283408    -0.12400
C2426       C  0.74731414  0.10068895  0.14642252     0.04600
C2427       C  0.73493901  0.09621619  0.11689976    -0.07700
C2428       C  0.73610570  0.11976227  0.09532445    -0.08400
C2429       C  0.75023648  0.14761313  0.10193083    -0.03000
C2430       C  0.76395004  0.15148096  0.13084755     0.03800
N2431       N  0.78209075  0.17755649  0.13773498     0.66300
H2432       H  0.77261059  0.13184652  0.17478717     0.15200
H2433       H  0.72578055  0.11610714  0.07315645     0.14900
N2434       N  0.72140054  0.06801359  0.10797836     0.74000
O2435       O  0.77098483  0.19821933  0.15438679    -0.39400
O2436       O  0.81057514  0.17511855  0.13588302    -0.39300
O2437       O  0.69283978  0.06619221  0.10714251    -0.40100
O2438       O  0.73688457  0.04986534  0.09190665    -0.40100
C2439       C  0.73463160  0.34715893  0.12775065    -0.12400
C2440       C  0.75050802  0.35275192  0.10059077     0.04600
C2441       C  0.76488803  0.38132215  0.09649263    -0.07700
C2442       C  0.76325951  0.40335178  0.11947907    -0.08400
C2443       C  0.74774549  0.39759748  0.14688559    -0.03000
C2444       C  0.73298424  0.36919404  0.15068488     0.03800
N2445       N  0.71607358  0.36205847  0.17752788     0.66300
H2446       H  0.72295921  0.32561726  0.13113224     0.15200
H2447       H  0.77504612  0.42482423  0.11613745     0.14900
N2448       N  0.78254681  0.38798030  0.06990637     0.74000
O2449       O  0.68764118  0.36554744  0.17711903    -0.39400
O2450       O  0.72752680  0.34341815  0.19626788    -0.39300
O2451       O  0.77218706  0.40653155  0.05039668    -0.40100
O2452       O  0.81072141  0.38287431  0.07055426    -0.40100
C2453       C  0.75390082  0.36924623  0.34325262    -0.12400
C2454       C  0.74358764  0.39840395  0.35126398     0.04600
C2455       C  0.73333696  0.40342507  0.38149833    -0.07700
C2456       C  0.73484468  0.37977181  0.40298301    -0.08400
C2457       C  0.74689074  0.35110299  0.39532314    -0.03000
C2458       C  0.75621824  0.34593026  0.36485251     0.03800
N2459       N  0.77090695  0.31834867  0.35583545     0.66300
H2460       H  0.76166111  0.36471793  0.32022311     0.15200
H2461       H  0.72674055  0.38410227  0.42597217     0.14900
N2462       N  0.72110829  0.43210128  0.39099946     0.74000
O2463       O  0.75679360  0.29982995  0.33902200    -0.39400
O2464       O  0.79950356  0.31771543  0.35596969    -0.39300
O2465       O  0.69274786  0.43459300  0.39417220    -0.40100
O2466       O  0.73815360  0.45045974  0.40500599    -0.40100
C2467       C  0.74128134  0.12953651  0.34684334    -0.12400
C2468       C  0.75485576  0.10119529  0.35348493     0.04600
C2469       C  0.76785946  0.09682067  0.38280338    -0.07700
C2470       C  0.76672697  0.12027570  0.40437198    -0.08400
C2471       C  0.75240896  0.14805395  0.39788814    -0.03000
C2472       C  0.73929371  0.15252030  0.36888606     0.03800
N2473       N  0.72259526  0.17967090  0.36205533     0.66300
H2474       H  0.73116380  0.13351210  0.32471399     0.15200
H2475       H  0.77723770  0.11666578  0.42644398     0.14900
N2476       N  0.78276414  0.06911399  0.39131818     0.74000
O2477       O  0.73593131  0.20161871  0.34902628    -0.39400
O2478       O  0.69731692  0.18417975  0.37490100    -0.39300
O2479       O  0.81137077  0.06895957  0.39261959    -0.40100
O2480       O  0.76823861  0.04999650  0.40724954    -0.40100
C2481       C  0.87039859  0.15412945  0.26465203    -0.12400
C2482       C  0.89744043  0.14815861  0.24876768     0.04600
C2483       C  0.90030449  0.12011741  0.23316541    -0.07700
C2484       C  0.87722220  0.09826175  0.23506841    -0.08400
C2485       C  0.85027452  0.10404285  0.25113015    -0.03000
C2486       C  0.84674417  0.13276103  0.26557173     0.03800
N2487       N  0.81963258  0.14075254  0.28161629     0.66300
H2488       H  0.86752696  0.17559986  0.27659034     0.15200
H2489       H  0.87991856  0.07704118  0.22265199     0.14900
N2490       N  0.92487169  0.11457767  0.21267314     0.74000
O2491       O  0.81873327  0.13702762  0.31021864    -0.39400
O2492       O  0.80162349  0.15961571  0.26942634    -0.39300
O2493       O  0.94460044  0.09493466  0.21985007    -0.40100
O2494       O  0.92145894  0.12156666  0.18487238    -0.40100
C2495       C  0.87963055  0.40404562  0.23762222    -0.12400
C2496       C  0.85087742  0.39592067  0.24886051     0.04600
C2497       C  0.84630914  0.36554263  0.25898612    -0.07700
C2498       C  0.87009293  0.34446502  0.25755768    -0.08400
C2499       C  0.89902823  0.35275545  0.24707244    -0.03000
C2500       C  0.90355000  0.38305238  0.23666509     0.03800
N2501       N  0.93158504  0.39281149  0.22349983     0.66300
H2502       H  0.88367080  0.42691595  0.22898037     0.15200
H2503       H  0.86582705  0.32135718  0.26522243     0.14900
N2504       N  0.81837905  0.35574992  0.27232259     0.74000
O2505       O  0.93407918  0.39290101  0.19475489    -0.39400
O2506       O  0.94857905  0.41007304  0.23889791    -0.39300
O2507       O  0.80138404  0.33826815  0.25717207    -0.40100
O2508       O  0.81608798  0.35588188  0.30106530    -0.40100
C2509       C  0.62295581  0.09782984  0.23494581    -0.12400
C2510       C  0.64815758  0.10244801  0.25385315     0.04600
C2511       C  0.64971714  0.12958648  0.27123490    -0.07700
C2512       C  0.62666268  0.15149007  0.26882786    -0.08400
C2513       C  0.60166440  0.14703731  0.24959645    -0.03000
C2514       C  0.59988997  0.11967704  0.23256324     0.03800
N2515       N  0.57596155  0.11423944  0.21129747     0.66300
H2516       H  0.62151963  0.07740286  0.22107498     0.15200
H2517       H  0.62806740  0.17194142  0.28266289     0.14900
N2518       N  0.67362480  0.13494190  0.29249935     0.74000
O2519       O  0.58066083  0.12006474  0.18341499    -0.39400
O2520       O  0.55572538  0.09506239  0.21825105    -0.39300
O2521       O  0.69312642  0.15504473  0.28606906    -0.40100
O2522       O  0.66928893  0.12801443  0.32019813    -0.40100
C2523       C  0.63013116  0.34528276  0.25905269    -0.12400
C2524       C  0.60008901  0.35443032  0.25368128     0.04600
C2525       C  0.59430999  0.38607252  0.24937682    -0.07700
C2526       C  0.61834477  0.40696860  0.24926575    -0.08400
C2527       C  0.64850251  0.39767711  0.25386566    -0.03000
C2528       C  0.65407103  0.36622455  0.25950375     0.03800
N2529       N  0.68358902  0.35465622  0.26637805     0.66300
H2530       H  0.63537473  0.32145152  0.26327171     0.15200
H2531       H  0.61310201  0.43082222  0.24518526     0.14900
N2532       N  0.56443989  0.39786240  0.24471086     0.74000
O2533       O  0.69125964  0.35233093  0.29406253    -0.39400
O2534       O  0.69610425  0.33729430  0.24720262    -0.39300
O2535       O  0.55142344  0.41119241  0.26666084    -0.40100
O2536       O  0.55619247  0.40410038  0.21779868    -0.40100
C2537       C  0.87043214  0.26279005  0.15502669    -0.12400
C2538       C  0.89829706  0.24878456  0.14797816     0.04600
C2539       C  0.90168846  0.23502059  0.11899150    -0.07700
C2540       C  0.87787350  0.23610539  0.09785934    -0.08400
C2541       C  0.85007789  0.25025682  0.10478333    -0.03000
C2542       C  0.84644406  0.26355429  0.13401747     0.03800
N2543       N  0.81906213  0.27871182  0.14275476     0.66300
H2544       H  0.86721078  0.27362694  0.17704050     0.15200
H2545       H  0.88108109  0.22510843  0.07592392     0.14900
N2546       N  0.92840346  0.21839326  0.11093817     0.74000
O2547       O  0.80082969  0.26498941  0.16030739    -0.39400
O2548       O  0.81803556  0.30748605  0.14130069    -0.39300
O2549       O  0.92782394  0.18961081  0.11249172    -0.40100
O2550       O  0.94779401  0.23104150  0.09386223    -0.40100
C2551       C  0.59469454  0.24734304  0.11926607    -0.12400
C2552       C  0.60395150  0.25380769  0.14921944     0.04600
C2553       C  0.63484564  0.26080349  0.15430843    -0.07700
C2554       C  0.65556612  0.25942349  0.13010204    -0.08400
C2555       C  0.64642696  0.25198257  0.10025295    -0.03000
C2556       C  0.61520393  0.24665143  0.09496254     0.03800
N2557       N  0.60324993  0.24102941  0.06524876     0.66300
H2558       H  0.57106089  0.24282478  0.11429847     0.15200
H2559       H  0.67905244  0.26493724  0.13483995     0.14900
N2560       N  0.64563137  0.27104086  0.18327097     0.74000
O2561       O  0.59753495  0.21383186  0.05792186    -0.39400
O2562       O  0.58830055  0.26210723  0.05259539    -0.39300
O2563       O  0.66153255  0.25309504  0.19922235    -0.40100
O2564       O  0.64788481  0.29941411  0.18772040    -0.40100
C2565       C  0.62005329  0.24506563  0.40544687    -0.12400
C2566       C  0.64960651  0.25239397  0.39580659     0.04600
C2567       C  0.65424800  0.25954435  0.36459401    -0.07700
C2568       C  0.62987284  0.25861863  0.34418834    -0.08400
C2569       C  0.60038279  0.25076580  0.35374356    -0.03000
C2570       C  0.59568827  0.24415377  0.38507297     0.03800
N2571       N  0.56683145  0.23526192  0.39691042     0.66300
H2572       H  0.61559746  0.23930564  0.42914492     0.15200
H2573       H  0.63430720  0.26445192  0.32050440     0.14900
N2574       N  0.68312430  0.26868365  0.35293726     0.74000
O2575       O  0.56146018  0.20713628  0.39993597    -0.39400
O2576       O  0.55282654  0.25376486  0.41386772    -0.39300
O2577       O  0.69770979  0.25010684  0.33654683    -0.40100
O2578       O  0.68839947  0.29684980  0.34992044    -0.40100
C2579       C  0.90414027  0.23372555  0.37950913    -0.12400
C2580       C  0.89761766  0.24826252  0.35163335     0.04600
C2581       C  0.86835379  0.26063304  0.34716049    -0.07700
C2582       C  0.84683003  0.25885452  0.37046130    -0.08400
C2583       C  0.85353815  0.24525116  0.39863812    -0.03000
C2584       C  0.88244053  0.23186630  0.40282545     0.03800
N2585       N  0.88951488  0.21420409  0.42936467     0.66300
H2586       H  0.92604157  0.22299248  0.38303506     0.15200
H2587       H  0.82468795  0.26866424  0.36652623     0.14900
N2588       N  0.86036010  0.27671932  0.31993567     0.74000
O2589       O  0.88507092  0.18575165  0.42854049    -0.39400
O2590       O  0.90831131  0.22467869  0.44834925    -0.39300
O2591       O  0.84380050  0.26356528  0.30050986    -0.40100
O2592       O  0.86110729  0.30550674  0.32034585    -0.40100
C2593       C  0.84447996  0.38203637  0.50734064    -0.12400
C2594       C  0.85400898  0.35012502  0.00268604     0.04600
C2595       C  0.88490612  0.34448978  0.00982377    -0.07700
C2596       C  0.90589957  0.36843630  0.00916513    -0.08400
C2597       C  0.89740455  0.39827157  0.00105924    -0.03000
C2598       C  0.86584629  0.40562722  0.50878543     0.03800
N2599       N  0.85573477  0.43500207  0.51872291     0.66300
H2600       H  0.82107023  0.38735779  0.51262160     0.15200
H2601       H  0.92922471  0.36339987  0.01518298     0.14900
N2602       N  0.89585595  0.31483400  0.01790232     0.74000
O2603       O  0.84019807  0.45117173  0.50066320    -0.39400
O2604       O  0.84041430  0.44910673  0.00162382    -0.39300
O2605       O  0.89973943  0.31170093  0.45603464    -0.40100
O2606       O  0.89671307  0.30748237  0.04579344    -0.40100
C2607       C  0.86800979  0.09318973  0.49961913    -0.12400
C2608       C  0.89751387  0.10148111  0.00092430     0.04600
C2609       C  0.90285259  0.13233401  0.00881245    -0.07700
C2610       C  0.87910861  0.15345397  0.00795513    -0.08400
C2611       C  0.84956644  0.14491355  0.99962787    -0.03000
C2612       C  0.84426460  0.11441078  0.49984443     0.03800
N2613       N  0.81400286  0.10287845  0.50172318     0.66300
H2614       H  0.86226431  0.06917941  0.50119995     0.15200
H2615       H  0.88401448  0.17681619  0.01436974     0.14900
N2616       N  0.93188305  0.14281143  0.01872004     0.74000
O2617       O  0.80125383  0.09403512  0.47751879    -0.39400
O2618       O  0.79948746  0.08779571  0.00207147    -0.39300
O2619       O  0.94373335  0.15466536  0.46628078    -0.40100
O2620       O  0.93686830  0.14486985  0.04704010    -0.40100
C2621       C  0.65458687  0.37951952  0.50733094    -0.12400
C2622       C  0.64787333  0.35149096  0.99716473     0.04600
C2623       C  0.61679822  0.34513398  0.99162525    -0.07700
C2624       C  0.59522194  0.36856958  0.99289278    -0.08400
C2625       C  0.60344239  0.39875477  0.99955081    -0.03000
C2626       C  0.63283076  0.40262094  0.50928977     0.03800
N2627       N  0.64117095  0.42997637  0.52471182     0.66300
H2628       H  0.67688318  0.38373885  0.51685394     0.15200
H2629       H  0.57173506  0.36288195  0.98836272     0.14900
N2630       N  0.60630920  0.31515597  0.98458058     0.74000
O2631       O  0.64140697  0.42956550  0.55353506    -0.39400
O2632       O  0.65772641  0.44904636  0.51086591    -0.39300
O2633       O  0.59266550  0.30026017  0.00509318    -0.40100
O2634       O  0.60183666  0.30824544  0.95698109    -0.40100
C2635       C  0.62095043  0.15434649  0.01074863    -0.12400
C2636       C  0.64744515  0.14869409  0.99404496     0.04600
C2637       C  0.65552388  0.11458595  0.49794858    -0.07700
C2638       C  0.63167196  0.09348152  0.49780332    -0.08400
C2639       C  0.60045060  0.10467720  0.99721261    -0.03000
C2640       C  0.59758811  0.13287629  0.01248406     0.03800
N2641       N  0.57233532  0.13943421  0.03176606     0.66300
H2642       H  0.61877303  0.17530872  0.02344852     0.15200
H2643       H  0.63721008  0.06957742  0.49467561     0.14900
N2644       N  0.68569258  0.10294432  0.49538578     0.74000
O2645       O  0.57541170  0.13552808  0.06017779    -0.39400
O2646       O  0.55135680  0.16057494  0.49540108    -0.39300
O2647       O  0.69558933  0.09749480  0.96624183    -0.40100
O2648       O  0.69581401  0.09637889  0.46922238    -0.40100
C2649       C  0.84626742  0.50403177  0.37847866    -0.12400
C2650       C  0.85364778  0.00002843  0.35086266     0.04600
C2651       C  0.88415270  0.00871121  0.34519012    -0.07700
C2652       C  0.90561822  0.00767080  0.36879506    -0.08400
C2653       C  0.89787206  0.99799640  0.39842865    -0.03000
C2654       C  0.86717893  0.50555004  0.40237707     0.03800
N2655       N  0.85550001  0.51103424  0.43227391     0.66300
H2656       H  0.82242163  0.50624863  0.38412818     0.15200
H2657       H  0.92859622  0.01493227  0.36377534     0.14900
N2658       N  0.89399134  0.01925901  0.31588071     0.74000
O2659       O  0.84402576  0.99470588  0.45094571    -0.39400
O2660       O  0.84366661  0.48904032  0.44663554    -0.39300
O2661       O  0.89744827  0.04757550  0.31171648    -0.40100
O2662       O  0.90751942  0.47012862  0.30222080    -0.40100
C2663       C  0.59403387  0.99718371  0.36852256    -0.12400
C2664       C  0.60319457  0.99744038  0.39924350     0.04600
C2665       C  0.63570857  0.50449891  0.40511891    -0.07700
C2666       C  0.65691921  0.50386297  0.38121500    -0.08400
C2667       C  0.64664086  0.99759938  0.35086910    -0.03000
C2668       C  0.61505018  0.99710636  0.34453760     0.03800
N2669       N  0.60339180  0.99619086  0.31409597     0.66300
H2670       H  0.57014096  0.99691929  0.36273198     0.15200
H2671       H  0.68021230  0.50980058  0.38633489     0.14900
N2672       N  0.64628397  0.51343566  0.43461289     0.74000
O2673       O  0.60622781  0.45082786  0.31067935    -0.39400
O2674       O  0.59156453  0.02007097  0.30308275    -0.39300
O2675       O  0.66280193  0.49508829  0.44945226    -0.40100
O2676       O  0.65643390  0.02198623  0.44689279    -0.40100
C2677       C  0.62155557  0.51298141  0.15315594    -0.12400
C2678       C  0.64900113  0.00004660  0.14685545     0.04600
C2679       C  0.65442164  0.99134973  0.11617962    -0.07700
C2680       C  0.63105758  0.99319171  0.09471934    -0.08400
C2681       C  0.60165277  0.00220736  0.10302631    -0.03000
C2682       C  0.59788054  0.51417772  0.13195358     0.03800
N2683       N  0.57020385  0.52859056  0.14089259     0.66300
H2684       H  0.61810883  0.52335396  0.17535876     0.15200
H2685       H  0.63599452  0.98684471  0.07135618     0.14900
N2686       N  0.68289175  0.97912687  0.10642261     0.74000
O2687       O  0.55156792  0.51363765  0.15693422    -0.39400
O2688       O  0.56250531  0.04837198  0.14814313    -0.39300
O2689       O  0.67721399  0.43906713  0.11148581    -0.40100
O2690       O  0.70037894  0.99579025  0.09079359    -0.40100
C2691       C  0.87049306  0.01292998  0.09531443    -0.12400
C2692       C  0.89913561  0.00160878  0.10373991     0.04600
C2693       C  0.90353738  0.48510201  0.13240809    -0.07700
C2694       C  0.87952397  0.48652837  0.15320464    -0.08400
C2695       C  0.85086613  0.00387459  0.14658480    -0.03000
C2696       C  0.84657694  0.01449466  0.11629604     0.03800
N2697       N  0.81886816  0.02841528  0.10657626     0.66300
H2698       H  0.86663610  0.02129748  0.07229056     0.15200
H2699       H  0.88260956  0.47625840  0.17557323     0.14900
N2700       N  0.93083039  0.47011243  0.14174066     0.74000
O2701       O  0.81692708  0.05717423  0.10707516    -0.39400
O2702       O  0.80344040  0.51633968  0.08898061    -0.39300
O2703       O  0.94809466  0.99813012  0.16175512    -0.40100
O2704       O  0.93229219  0.44139533  0.13987258    -0.40100
C2705       C  0.98430194  0.09507846  0.37073323    -0.12400
C2706       C  0.49757780  0.10070590  0.39687756     0.04600
C2707       C  0.50832238  0.13066265  0.40189915    -0.07700
C2708       C  0.50663127  0.15245628  0.37866586    -0.08400
C2709       C  0.49519231  0.14525211  0.34973510    -0.03000
C2710       C  0.98256026  0.11652962  0.34703826     0.03800
N2711       N  0.96728208  0.10799582  0.31959267     0.66300
H2712       H  0.97422268  0.07277389  0.36732995     0.15200
H2713       H  0.51523486  0.17511972  0.38320169     0.14900
N2714       N  0.52248555  0.13925183  0.42986583     0.74000
O2715       O  0.98136426  0.09198515  0.30027439    -0.39400
O2716       O  0.93864993  0.10761999  0.31952110    -0.39300
O2717       O  0.55108162  0.14020451  0.43094115    -0.40100
O2718       O  0.50729812  0.15433645  0.44906739    -0.40100
C2719       C  0.48597789  0.37873205  0.34588080    -0.12400
C2720       C  0.49907987  0.35038772  0.35309496     0.04600
C2721       C  0.02366669  0.35113697  0.37875619    -0.07700
C2722       C  0.02163696  0.37463886  0.40038135    -0.08400
C2723       C  0.49753898  0.39821844  0.39668678    -0.03000
C2724       C  0.48503281  0.40250980  0.36716833     0.03800
N2725       N  0.47043581  0.43032245  0.35840120     0.66300
H2726       H  0.47599201  0.38249728  0.32354557     0.15200
H2727       H  0.03589535  0.37359145  0.42053744     0.14900
N2728       N  0.04574792  0.32771371  0.38337075     0.74000
O2729       O  0.48538450  0.44968452  0.34318475    -0.39400
O2730       O  0.44184644  0.43081340  0.35681137    -0.39300
O2731       O  0.07299891  0.33319243  0.37634450    -0.40100
O2732       O  0.04029444  0.30723382  0.40292927    -0.40100
C2733       C  0.52133325  0.37490121  0.14999928    -0.12400
C2734       C  0.49935882  0.35206261  0.14901535     0.04600
C2735       C  0.97952014  0.34718847  0.12122519    -0.07700
C2736       C  0.98095364  0.36995522  0.09855259    -0.08400
C2737       C  0.50061559  0.39790213  0.10388918    -0.03000
C2738       C  0.52226104  0.39772835  0.12772285     0.03800
N2739       N  0.54653064  0.41926197  0.12880989     0.66300
H2740       H  0.53846799  0.37449704  0.16772613     0.15200
H2741       H  0.96733630  0.36753611  0.07809599     0.14900
N2742       N  0.96043006  0.32114424  0.11698852     0.74000
O2743       O  0.54472841  0.44103871  0.14753802    -0.39400
O2744       O  0.57243992  0.41085739  0.11980874    -0.39300
O2745       O  0.93757227  0.31758735  0.13405448    -0.40100
O2746       O  0.97050913  0.29859090  0.10222238    -0.40100
C2747       C  0.51158796  0.13086841  0.09402178    -0.12400
C2748       C  0.50139324  0.10168022  0.10240588     0.04600
C2749       C  0.98662235  0.09747197  0.13196580    -0.07700
C2750       C  0.98958162  0.12042879  0.15381290    -0.08400
C2751       C  0.50535201  0.14913590  0.14606677    -0.03000
C2752       C  0.51429158  0.15427656  0.11545034     0.03800
N2753       N  0.52831729  0.18212459  0.10598546     0.66300
H2754       H  0.51822270  0.13552590  0.07066218     0.15200
H2755       H  0.98094933  0.11620556  0.17657612     0.14900
N2756       N  0.97111517  0.07017300  0.14050790     0.74000
O2757       O  0.55663738  0.18471860  0.10919303    -0.39400
O2758       O  0.51498680  0.19882058  0.08663389    -0.39300
O2759       O  0.98443035  0.05141506  0.15785476    -0.40100
O2760       O  0.94251720  0.06976355  0.13911146    -0.40100
O2761       O  0.49919019  0.04962576  0.58780548    -0.75900
O2762       O  0.49981186  0.04975030  0.91267301    -0.81800
O2763       O  0.54919484  0.08768693  0.50043248    -0.78800
O2764       O  0.95054660  0.08717848  0.49860227    -0.77200
O2765       O  0.91417267  0.05018406  0.49898332    -0.79000
O2766       O  0.58541711  0.05041885  0.50127642    -0.79900
O2767       O  0.49976373  0.08686017  0.94934996    -0.81300
O2768       O  0.49962557  0.08601095  0.55034635    -0.81600
Eu2769     Eu  0.50010312  0.06149442  0.49985854     2.39200
O2770       O  0.96831321  0.03041987  0.96922448    -0.89100
O2771       O  0.53080703  0.03082112  0.53139037    -0.92700
C2772       C  0.49914940  0.07763986  0.57871214     1.02000
C2773       C  0.49985760  0.07794820  0.92124641     1.01800
C2774       C  0.57706921  0.07879953  0.50126175     1.01800
C2775       C  0.92264567  0.07846214  0.49829204     0.99600
H2776       H  0.54336865  0.04396915  0.95553409     0.29400
O2777       O  0.53094645  0.03126538  0.96843609    -1.01500
H2778       H  0.95614327  0.04323028  0.54429104     0.29400
O2779       O  0.96905226  0.03068584  0.53176954    -1.04000
O2780       O  0.50323343  0.44887364  0.91333825    -0.81200
O2781       O  0.50071130  0.44782101  0.58712812    -0.80800
O2782       O  0.58788732  0.99994868  0.95012433    -0.79200
O2783       O  0.91152199  0.99794913  0.95166660    -0.82500
O2784       O  0.91589649  0.99857575  0.55225676    -0.80400
O2785       O  0.58524928  0.00056073  0.55110459    -0.79000
O2786       O  0.55089837  0.41268107  0.49891761    -0.80600
O2787       O  0.94844421  0.41499927  0.50027392    -0.82500
O2788       O  0.58757221  0.44959686  0.50040307    -0.79200
O2789       O  0.91187573  0.45202850  0.50019759    -0.81900
O2790       O  0.55090300  0.99893558  0.91360392    -0.77600
O2791       O  0.54901666  0.00093558  0.58838853    -0.77700
O2792       O  0.95205285  0.99820024  0.58953177    -0.77300
O2793       O  0.94810540  0.99894309  0.91456515    -0.80800
O2794       O  0.50204180  0.41244625  0.95105567    -0.80200
O2795       O  0.49864719  0.41100006  0.55012221    -0.78600
Eu2796     Eu  0.50009648  0.99966597  0.93796591     2.39800
Eu2797     Eu  0.49986484  0.99987387  0.56247739     2.39600
Eu2798     Eu  0.56127419  0.99939172  0.50071691     2.38400
Eu2799     Eu  0.93876863  0.99961036  0.50068508     2.39900
Eu2800     Eu  0.49993650  0.43693912  0.49996007     2.39800
O2801       O  0.96879532  0.46944529  0.53012809    -0.93000
O2802       O  0.53043760  0.46903397  0.96990568    -0.91900
C2803       C  0.50346666  0.42084534  0.92273791     1.02200
C2804       C  0.49971427  0.41980773  0.57827867     1.00900
C2805       C  0.57908737  0.99911205  0.92203060     1.00300
C2806       C  0.91999910  0.99830806  0.92342456     1.02300
C2807       C  0.92429223  0.99818693  0.58061443     1.01200
C2808       C  0.57685291  0.00103087  0.57937969     1.00100
C2809       C  0.57898077  0.42149819  0.49943793     1.00100
C2810       C  0.92040370  0.42387175  0.50070629     1.02800
H2811       H  0.54375815  0.45437352  0.54398658     0.30100
O2812       O  0.53114493  0.46724914  0.53136191    -1.05100
H2813       H  0.95684766  0.45595583  0.95624946     0.32200
O2814       O  0.96946941  0.46846052  0.96896979    -1.07700
O2815       O  0.50189183  0.20277601  0.66062105    -0.80300
O2816       O  0.49855968  0.19765330  0.83449443    -0.81800
O2817       O  0.55093016  0.16394516  0.74995784    -0.78800
O2818       O  0.95080598  0.16189661  0.74932653    -0.77200
O2819       O  0.91400448  0.19878246  0.75079108    -0.79000
O2820       O  0.58715138  0.20133043  0.75017466    -0.79900
O2821       O  0.49883098  0.16131258  0.79715500    -0.81300
O2822       O  0.50220733  0.16583395  0.69746465    -0.81600
Eu2823     Eu  0.50117986  0.18901321  0.74861791     2.39200
O2824       O  0.96884969  0.21838992  0.78031986    -0.89100
O2825       O  0.53242997  0.22059377  0.71866166    -0.92700
C2826       C  0.50218610  0.17461764  0.66922304     1.02000
C2827       C  0.49811828  0.16960301  0.82535650     1.01800
C2828       C  0.57875957  0.17298504  0.75029264     1.01800
C2829       C  0.92284637  0.17058281  0.75025980     0.99600
H2830       H  0.54411098  0.20659689  0.79318656     0.29400
O2831       O  0.53153615  0.21956176  0.78051107    -1.01500
H2832       H  0.95661318  0.20635867  0.70541785     0.29400
O2833       O  0.96911092  0.21898752  0.71832782    -1.04000
O2834       O  0.49937505  0.29751936  0.83977207    -0.81200
O2835       O  0.49943883  0.30102740  0.66376048    -0.80800
O2836       O  0.58647198  0.25111982  0.80083861    -0.79200
O2837       O  0.91180701  0.24907947  0.79875484    -0.82500
O2838       O  0.91398770  0.25041320  0.69870065    -0.80400
O2839       O  0.58903988  0.25250330  0.70127002    -0.79000
O2840       O  0.54699857  0.34146494  0.75140745    -0.80600
O2841       O  0.95103006  0.33839300  0.75085957    -0.82500
O2842       O  0.58359362  0.30457427  0.75127796    -0.79200
O2843       O  0.91473305  0.30129274  0.74962733    -0.81900
O2844       O  0.54998039  0.24865168  0.83793709    -0.77600
O2845       O  0.55215921  0.25157767  0.66469894    -0.77700
O2846       O  0.95094420  0.24985090  0.66195052    -0.77300
O2847       O  0.94846741  0.24797459  0.83553258    -0.80800
O2848       O  0.50022674  0.33503056  0.80322672    -0.80200
O2849       O  0.49923706  0.33762534  0.70107004    -0.78600
Eu2850     Eu  0.50011942  0.24920987  0.81203505     2.39800
Eu2851     Eu  0.50109617  0.25136074  0.68811193     2.39600
Eu2852     Eu  0.56219814  0.25196751  0.75045904     2.38400
Eu2853     Eu  0.93812269  0.24977493  0.74944207     2.39900
Eu2854     Eu  0.49984319  0.31275909  0.75136504     2.39800
O2855       O  0.96938854  0.28105795  0.71928221    -0.93000
O2856       O  0.53091780  0.28165839  0.78214385    -0.91900
C2857       C  0.49980085  0.32572150  0.83133621     1.02200
C2858       C  0.49878339  0.32885914  0.67296279     1.00900
C2859       C  0.57796963  0.24968361  0.82908235     1.00300
C2860       C  0.92043599  0.24840073  0.82688048     1.02300
C2861       C  0.92284787  0.25016504  0.67050439     1.01200
C2862       C  0.58029959  0.25203855  0.67314863     1.00100
C2863       C  0.57489074  0.33291806  0.75145824     1.00100
C2864       C  0.92317410  0.32963915  0.75020031     1.02800
H2865       H  0.54364527  0.29588921  0.70695274     0.30100
O2866       O  0.53114703  0.28281322  0.71953420    -1.05100
H2867       H  0.95577766  0.29262662  0.79411939     0.32200
O2868       O  0.96857788  0.28012493  0.78137099    -1.07700
O2869       O  0.83519341  0.50013674  0.69755556    -0.80300
O2870       O  0.66386468  0.50123837  0.69956949    -0.81800
O2871       O  0.75016444  0.44906623  0.66389885    -0.78800
O2872       O  0.74724596  0.04877009  0.66044764    -0.77200
O2873       O  0.74847987  0.08549989  0.69744298    -0.79000
O2874       O  0.74905559  0.41214869  0.70092045    -0.79900
O2875       O  0.70021194  0.49971156  0.66233078    -0.81300
O2876       O  0.79842700  0.50124798  0.66073367    -0.81600
Eu2877     Eu  0.74970733  0.49998792  0.68775402     2.39200
O2878       O  0.71971174  0.03137152  0.71783047    -0.89100
O2879       O  0.78073406  0.46884098  0.71847209    -0.92700
C2880       C  0.82637526  0.50085666  0.66934498     1.02000
C2881       C  0.67234604  0.50021739  0.67130453     1.01800
C2882       C  0.74966127  0.42085107  0.67271179     1.01800
C2883       C  0.74717083  0.07682100  0.66923422     0.99600
H2884       H  0.70580243  0.45679739  0.70654823     0.29400
O2885       O  0.71859421  0.46955898  0.71900660    -1.01500
H2886       H  0.79368879  0.04432870  0.70528650     0.29400
O2887       O  0.78105224  0.03145907  0.71804438    -1.04000
O2888       O  0.66242818  0.50052932  0.79894237    -0.81200
O2889       O  0.83829097  0.50029803  0.79794759    -0.80800
O2890       O  0.69988372  0.41360438  0.75164848    -0.79200
O2891       O  0.70149740  0.08932984  0.74697892    -0.82500
O2892       O  0.79991107  0.08816869  0.75171663    -0.80400
O2893       O  0.79839833  0.41200182  0.75090186    -0.79000
O2894       O  0.74911456  0.45212049  0.83842046    -0.80600
O2895       O  0.74843454  0.05084372  0.83659208    -0.82500
O2896       O  0.74836930  0.41540853  0.80145021    -0.79200
O2897       O  0.74915123  0.08767276  0.79955921    -0.81900
O2898       O  0.66406753  0.45128854  0.75146259    -0.77600
O2899       O  0.83489530  0.44892836  0.74980697    -0.77700
O2900       O  0.83619573  0.05071242  0.75119394    -0.77300
O2901       O  0.66489181  0.05234084  0.74703769    -0.80800
O2902       O  0.69910586  0.50045998  0.83586033    -0.80200
O2903       O  0.80169203  0.50093030  0.83506055    -0.78600
Eu2904     Eu  0.68868928  0.50167299  0.74980903     2.39800
Eu2905     Eu  0.81161059  0.50028226  0.74883625     2.39600
Eu2906     Eu  0.74949200  0.43878450  0.75034801     2.38400
Eu2907     Eu  0.75013868  0.06261306  0.74896172     2.39900
Eu2908     Eu  0.75030347  0.50135136  0.81202275     2.39800
O2909       O  0.78039167  0.03141465  0.78011823    -0.93000
O2910       O  0.71939487  0.47070479  0.78098743    -0.91900
C2911       C  0.67101623  0.49999881  0.82706561     1.02200
C2912       C  0.82976457  0.50047785  0.82616579     1.00900
C2913       C  0.67212266  0.42288274  0.75204920     1.00300
C2914       C  0.67359828  0.08064219  0.74657772     1.02300
C2915       C  0.82777857  0.07899383  0.75228848     1.01200
C2916       C  0.82634602  0.42064513  0.75061633     1.00100
C2917       C  0.74845881  0.42407960  0.82965950     1.00100
C2918       C  0.74871173  0.07899324  0.82787510     1.02800
H2919       H  0.79325071  0.45714192  0.79354336     0.30100
O2920       O  0.78067510  0.46990549  0.78076889    -1.05100
H2921       H  0.70555432  0.04463275  0.79233794     0.32200
O2922       O  0.71847379  0.03196784  0.77984761    -1.07700
O2923       O  0.69967187  0.16240568  0.99589801    -0.80300
O2924       O  0.70006560  0.33615441  0.99809710    -0.81800
O2925       O  0.66154907  0.24983486  0.54699672    -0.78800
O2926       O  0.66602815  0.25140771  0.94745586    -0.77200
O2927       O  0.70298916  0.25220528  0.91083578    -0.79000
O2928       O  0.69825441  0.25026447  0.58376342    -0.79900
O2929       O  0.66330511  0.29945387  0.99738780    -0.81300
O2930       O  0.66372331  0.20010552  0.99635232    -0.81600
Eu2931     Eu  0.68884939  0.25013535  0.99862483     2.39200
O2932       O  0.72015755  0.28149279  0.96825544    -0.89100
O2933       O  0.71925563  0.21945760  0.53029608    -0.92700
C2934       C  0.67192272  0.17179428  0.99512844     1.02000
C2935       C  0.67192557  0.32750628  0.99737863     1.01800
C2936       C  0.67015577  0.24984889  0.57513200     1.01800
C2937       C  0.67493172  0.25200492  0.91929910     0.99600
H2938       H  0.70612326  0.29468635  0.54191522     0.29400
O2939       O  0.71898196  0.28173773  0.52944540    -1.01500
H2940       H  0.70726593  0.20729968  0.95461308     0.29400
O2941       O  0.71982542  0.21955915  0.96792212    -1.04000
O2942       O  0.80217865  0.33470949  0.00146984    -0.81200
O2943       O  0.79759106  0.16045358  0.99859955    -0.80800
O2944       O  0.75166972  0.30186489  0.58468877    -0.79200
O2945       O  0.75292010  0.29979379  0.91178403    -0.82500
O2946       O  0.75125307  0.20171867  0.91231521    -0.80400
O2947       O  0.75012260  0.20139071  0.58719379    -0.79000
O2948       O  0.83562825  0.25142467  0.55091468    -0.80600
O2949       O  0.83905732  0.24844200  0.95258907    -0.82500
O2950       O  0.79881865  0.25282368  0.58777463    -0.79200
O2951       O  0.80268441  0.24973165  0.91558674    -0.81900
O2952       O  0.75290759  0.33899412  0.54782421    -0.77600
O2953       O  0.74990305  0.16452410  0.55029713    -0.77700
O2954       O  0.74899006  0.16445000  0.94875189    -0.77300
O2955       O  0.75240504  0.33628498  0.94892174    -0.80800
O2956       O  0.83874740  0.29768161  0.00242265    -0.80200
O2957       O  0.83438842  0.19703450  0.00055787    -0.78600
Eu2958     Eu  0.75095302  0.31175884  0.99951468     2.39800
Eu2959     Eu  0.74923988  0.18791568  0.99952499     2.39600
Eu2960     Eu  0.74963135  0.25101485  0.56105206     2.38400
Eu2961     Eu  0.75174815  0.25066697  0.93816221     2.39900
Eu2962     Eu  0.81189083  0.24863876  0.00142516     2.39800
O2963       O  0.78136830  0.21858133  0.96937195    -0.93000
O2964       O  0.78071702  0.28117843  0.52974086    -0.91900
C2965       C  0.83023832  0.32587404  0.00235463     1.02200
C2966       C  0.82556826  0.16887760  0.99939889     1.00900
C2967       C  0.75303672  0.33008891  0.57600245     1.00300
C2968       C  0.75289655  0.32777800  0.92065725     1.02300
C2969       C  0.74964263  0.17360148  0.92067568     1.01200
C2970       C  0.74999721  0.17329438  0.57844232     1.00100
C2971       C  0.82684713  0.25265980  0.57911560     1.00100
C2972       C  0.83063183  0.24894272  0.92440122     1.02800
H2973       H  0.79345851  0.20657524  0.54405217     0.30100
O2974       O  0.78086277  0.21927028  0.53098369    -1.05100
H2975       H  0.79583140  0.29344017  0.95710594     0.32200
O2976       O  0.78252828  0.28069130  0.96966051    -1.07700
C2977       C  0.75980415  0.12937905  0.65296090    -0.12400
C2978       C  0.74674360  0.10116086  0.64560622     0.04600
C2979       C  0.73452445  0.09717651  0.61598622    -0.07700
C2980       C  0.73600045  0.12098141  0.59470064    -0.08400
C2981       C  0.74926763  0.14909269  0.60208117    -0.03000
C2982       C  0.76125074  0.15315299  0.63170538     0.03800
N2983       N  0.77608046  0.18069979  0.64053108     0.66300
H2984       H  0.76970239  0.13298423  0.67532548     0.15200
H2985       H  0.72628166  0.11743098  0.57224086     0.14900
N2986       N  0.72013906  0.06951350  0.60688767     0.74000
O2987       O  0.76157183  0.19974991  0.65646484    -0.39400
O2988       O  0.80470236  0.18119660  0.64108363    -0.39300
O2989       O  0.69151297  0.06858978  0.60649116    -0.40100
O2990       O  0.73479308  0.05152518  0.58989854    -0.40100
C2991       C  0.74029486  0.34617058  0.62875483    -0.12400
C2992       C  0.75353230  0.35354918  0.60051633     0.04600
C2993       C  0.76608550  0.38303333  0.59666992    -0.07700
C2994       C  0.76425355  0.40437709  0.62037879    -0.08400
C2995       C  0.75055111  0.39711679  0.64845995    -0.03000
C2996       C  0.73867084  0.36738806  0.65250033     0.03800
N2997       N  0.72358230  0.35838992  0.67991318     0.66300
H2998       H  0.73031378  0.32382821  0.63237403     0.15200
H2999       H  0.77440380  0.42666651  0.61692410     0.14900
N3000       N  0.78286516  0.39121117  0.56998612     0.74000
O3001       O  0.69502930  0.36037065  0.68090765    -0.39400
O3002       O  0.73678328  0.33969643  0.69743900    -0.39300
O3003       O  0.77109482  0.40957458  0.55111870    -0.40100
O3004       O  0.81138090  0.38886663  0.57091048    -0.40100
C3005       C  0.75905068  0.37066139  0.84501106    -0.12400
C3006       C  0.74885156  0.39982285  0.85336072     0.04600
C3007       C  0.74029852  0.40493883  0.88409373    -0.07700
C3008       C  0.74195302  0.38112219  0.90530421    -0.08400
C3009       C  0.75248716  0.35204955  0.89700452    -0.03000
C3010       C  0.76146823  0.34703644  0.86635547     0.03800
N3011       N  0.77447353  0.31880120  0.85651374     0.66300
H3012       H  0.76592371  0.36619640  0.82172730     0.15200
H3013       H  0.73463947  0.38556549  0.92853666     0.14900
N3014       N  0.72940329  0.43385499  0.89441656     0.74000
O3015       O  0.75832795  0.30062410  0.84125373    -0.39400
O3016       O  0.80297295  0.31685962  0.85439347    -0.39300
O3017       O  0.70122255  0.43742026  0.89812973    -0.40100
O3018       O  0.74741249  0.45113102  0.90858422    -0.40100
C3019       C  0.74251981  0.13362192  0.84368875    -0.12400
C3020       C  0.74844887  0.10304726  0.85196861     0.04600
C3021       C  0.75386141  0.09633631  0.88326188    -0.07700
C3022       C  0.75400665  0.11966263  0.90478877    -0.08400
C3023       C  0.74859134  0.15000703  0.89652746    -0.03000
C3024       C  0.74217283  0.15690559  0.86561815     0.03800
N3025       N  0.73358431  0.18704690  0.85644322     0.66300
H3026       H  0.73748544  0.13952207  0.82015826     0.15200
H3027       H  0.75827503  0.11366082  0.92842052     0.14900
N3028       N  0.75909787  0.06604342  0.89420829     0.74000
O3029       O  0.75367023  0.20551449  0.84737536    -0.39400
O3030       O  0.70771543  0.19700497  0.86381733    -0.39300
O3031       O  0.78569416  0.05864023  0.90192606    -0.40100
O3032       O  0.73706865  0.05162606  0.90572069    -0.40100
C3033       C  0.87289301  0.15153489  0.76869873    -0.12400
C3034       C  0.89908898  0.14658862  0.75113416     0.04600
C3035       C  0.90194355  0.11879958  0.73501864    -0.07700
C3036       C  0.87862510  0.09716153  0.73620826    -0.08400
C3037       C  0.85213399  0.10236457  0.75320913    -0.03000
C3038       C  0.84960171  0.12977832  0.77004195     0.03800
N3039       N  0.82451568  0.13529763  0.78999201     0.66300
H3040       H  0.87070385  0.17224630  0.78200274     0.15200
H3041       H  0.88094704  0.07642832  0.72292113     0.14900
N3042       N  0.92733172  0.11284241  0.71564057     0.74000
O3043       O  0.82644535  0.12673982  0.81750067    -0.39400
O3044       O  0.80572802  0.15595670  0.78309068    -0.39300
O3045       O  0.94627761  0.09270382  0.72359135    -0.40100
O3046       O  0.92561584  0.12033275  0.68782005    -0.40100
C3047       C  0.88089140  0.40614334  0.74731606    -0.12400
C3048       C  0.85062326  0.39680833  0.75102113     0.04600
C3049       C  0.84481286  0.36516488  0.75481363    -0.07700
C3050       C  0.86875683  0.34419449  0.75434065    -0.08400
C3051       C  0.89896780  0.35350570  0.75040727    -0.03000
C3052       C  0.90486593  0.38519819  0.74709076     0.03800
N3053       N  0.93482718  0.39698741  0.74311581     0.66300
H3054       H  0.88632238  0.43010461  0.74436459     0.15200
H3055       H  0.86338517  0.32024222  0.75746208     0.14900
N3056       N  0.81505714  0.35347931  0.76015782     0.74000
O3057       O  0.94380488  0.40319780  0.71640271    -0.39400
O3058       O  0.94738340  0.41008251  0.76542042    -0.39300
O3059       O  0.80165344  0.34002335  0.73859183    -0.40100
O3060       O  0.80757374  0.34713981  0.78727959    -0.40100
C3061       C  0.62153326  0.09766715  0.75987300    -0.12400
C3062       C  0.64972480  0.10471200  0.74674439     0.04600
C3063       C  0.65444955  0.13473193  0.73539663    -0.07700
C3064       C  0.63106879  0.15635921  0.73696959    -0.08400
C3065       C  0.60287432  0.14922610  0.75005704    -0.03000
C3066       C  0.59841762  0.11947221  0.76201205     0.03800
N3067       N  0.57137759  0.11123167  0.77805637     0.66300
H3068       H  0.61756671  0.07518678  0.76953014     0.15200
H3069       H  0.63505658  0.17894225  0.72756101     0.14900
N3070       N  0.68250434  0.14388671  0.72178170     0.74000
O3071       O  0.55164991  0.09553554  0.76438849    -0.39400
O3072       O  0.57188233  0.11087571  0.80690571    -0.39300
O3073       O  0.68398148  0.14615960  0.69304788    -0.40100
O3074       O  0.70113581  0.15872403  0.73778735    -0.40100
C3075       C  0.62887209  0.34742166  0.75709907    -0.12400
C3076       C  0.59890317  0.35687487  0.75196345     0.04600
C3077       C  0.59328209  0.38857743  0.74772781    -0.07700
C3078       C  0.61746722  0.40924630  0.74794797    -0.08400
C3079       C  0.64750223  0.39961234  0.75277457    -0.03000
C3080       C  0.65289773  0.36810547  0.75779583     0.03800
N3081       N  0.68232599  0.35626888  0.76455299     0.66300
H3082       H  0.63400567  0.32353699  0.76112837     0.15200
H3083       H  0.61242940  0.43318858  0.74411059     0.14900
N3084       N  0.56353884  0.40067173  0.74283670     0.74000
O3085       O  0.68999869  0.35365092  0.79221274    -0.39400
O3086       O  0.69498402  0.33933183  0.74506911    -0.39300
O3087       O  0.55059750  0.41426161  0.76467562    -0.40100
O3088       O  0.55574083  0.40729641  0.71587677    -0.40100
C3089       C  0.87080689  0.26471625  0.65356535    -0.12400
C3090       C  0.89873699  0.25084351  0.64662534     0.04600
C3091       C  0.90258249  0.23809437  0.61722358    -0.07700
C3092       C  0.87898735  0.23931275  0.59589978    -0.08400
C3093       C  0.85100453  0.25290649  0.60288401    -0.03000
C3094       C  0.84713348  0.26593888  0.63219589     0.03800
N3095       N  0.81984247  0.28140142  0.64059323     0.66300
H3096       H  0.86732157  0.27514605  0.67573343     0.15200
H3097       H  0.88258528  0.22893550  0.57371841     0.14900
N3098       N  0.92997353  0.22323533  0.60841222     0.74000
O3099       O  0.80075666  0.26752198  0.65705368    -0.39400
O3100       O  0.81942897  0.31021916  0.63996666    -0.39300
O3101       O  0.93078801  0.19441716  0.60875497    -0.40100
O3102       O  0.94790874  0.23750789  0.59102778    -0.40100
C3103       C  0.59455450  0.24594994  0.61835457    -0.12400
C3104       C  0.60381460  0.25170737  0.64852078     0.04600
C3105       C  0.63513055  0.25652187  0.65397165    -0.07700
C3106       C  0.65576485  0.25589454  0.62970162    -0.08400
C3107       C  0.64655176  0.24994452  0.59960193    -0.03000
C3108       C  0.61531694  0.24457813  0.59415916     0.03800
N3109       N  0.60404734  0.23628183  0.56473982     0.66300
H3110       H  0.57086397  0.24195196  0.61330336     0.15200
H3111       H  0.67942199  0.26024799  0.63477692     0.14900
N3112       N  0.64686913  0.26239552  0.68377117     0.74000
O3113       O  0.60074436  0.20829063  0.55889185    -0.39400
O3114       O  0.58859325  0.25553951  0.54989609    -0.39300
O3115       O  0.66158228  0.24149273  0.69708042    -0.40100
O3116       O  0.65148539  0.28974761  0.69145895    -0.40100
C3117       C  0.62187436  0.24112334  0.90397181    -0.12400
C3118       C  0.65082035  0.25157399  0.89551633     0.04600
C3119       C  0.65556634  0.26076926  0.86483191    -0.07700
C3120       C  0.63152598  0.25990373  0.84397603    -0.08400
C3121       C  0.60246200  0.24973876  0.85254992    -0.03000
C3122       C  0.59797103  0.23997066  0.88306072     0.03800
N3123       N  0.57004531  0.22691550  0.89310171     0.66300
H3124       H  0.61767468  0.23306258  0.92705008     0.15200
H3125       H  0.63577849  0.26767513  0.82081562     0.14900
N3126       N  0.68417905  0.27194156  0.85428831     0.74000
O3127       O  0.56819145  0.19820375  0.89437436    -0.39400
O3128       O  0.55271663  0.24267446  0.90978417    -0.39300
O3129       O  0.70033693  0.25484255  0.83775489    -0.40100
O3130       O  0.68810059  0.30043788  0.85269090    -0.40100
C3131       C  0.90645005  0.24893281  0.88188992    -0.12400
C3132       C  0.89690122  0.24831618  0.85129251     0.04600
C3133       C  0.86534613  0.24783247  0.84526774    -0.07700
C3134       C  0.84465549  0.24779441  0.86943296    -0.08400
C3135       C  0.85420487  0.24855115  0.90003602    -0.03000
C3136       C  0.88573380  0.24913970  0.90603815     0.03800
N3137       N  0.89759954  0.25114841  0.93625677     0.66300
H3138       H  0.93038775  0.24957623  0.88747046     0.15200
H3139       H  0.82071765  0.24739811  0.86383416     0.14900
N3140       N  0.85341141  0.24772530  0.81494902     0.74000
O3141       O  0.90660417  0.22703181  0.94927908    -0.39400
O3142       O  0.90842136  0.27638201  0.94467461    -0.39300
O3143       O  0.84210441  0.22331086  0.80483237    -0.40100
O3144       O  0.84524326  0.27279436  0.80324267    -0.40100
C3145       C  0.84548223  0.38006580  0.99485466    -0.12400
C3146       C  0.85284412  0.35205237  0.49965014     0.04600
C3147       C  0.88368714  0.34616745  0.49269623    -0.07700
C3148       C  0.90488799  0.36986280  0.49336797    -0.08400
C3149       C  0.89658825  0.39977263  0.50124445    -0.03000
C3150       C  0.86657080  0.40388812  0.99374089     0.03800
N3151       N  0.85614929  0.43311788  0.98361254     0.66300
H3152       H  0.82220298  0.38516378  0.98871486     0.15200
H3153       H  0.92815071  0.36461579  0.48726471     0.14900
N3154       N  0.89411051  0.31658874  0.48388763     0.74000
O3155       O  0.85413651  0.43801359  0.95523987    -0.39400
O3156       O  0.85421208  0.44028308  0.54703006    -0.39300
O3157       O  0.91360491  0.30152938  0.99964692    -0.40100
O3158       O  0.90630226  0.29970410  0.50383021    -0.40100
C3159       C  0.86793753  0.09280424  0.99290112    -0.12400
C3160       C  0.89847964  0.10235737  0.49755207     0.04600
C3161       C  0.90476688  0.13403843  0.49526069    -0.07700
C3162       C  0.88107044  0.15524972  0.49585073    -0.08400
C3163       C  0.85064231  0.14613515  0.49825001    -0.03000
C3164       C  0.84410327  0.11390303  0.99226165     0.03800
N3165       N  0.81490204  0.10318874  0.98319850     0.66300
H3166       H  0.86311726  0.06938595  0.98660790     0.15200
H3167       H  0.88684615  0.17925099  0.49433457     0.14900
N3168       N  0.93492904  0.14554736  0.49221455     0.74000
O3169       O  0.80959266  0.10021578  0.95504198    -0.39400
O3170       O  0.80452928  0.09279181  0.52705221    -0.39300
O3171       O  0.94779345  0.15843135  0.00047207    -0.40100
O3172       O  0.94828981  0.15526145  0.51574274    -0.40100
C3173       C  0.65608362  0.38164624  0.00368977    -0.12400
C3174       C  0.64774274  0.35106935  0.49461477     0.04600
C3175       C  0.61816824  0.34619917  0.48297291    -0.07700
C3176       C  0.59629373  0.36934358  0.48499955    -0.08400
C3177       C  0.60304183  0.39767097  0.49824009    -0.03000
C3178       C  0.63451491  0.40503975  0.00504943     0.03800
N3179       N  0.64485605  0.43451869  0.01391116     0.66300
H3180       H  0.67952298  0.38728641  0.00852909     0.15200
H3181       H  0.57392621  0.36515527  0.47564871     0.14900
N3182       N  0.61002145  0.31850099  0.46793285     0.74000
O3183       O  0.65215596  0.43829603  0.04148129    -0.39400
O3184       O  0.65676035  0.45150279  0.99387754    -0.39300
O3185       O  0.59361868  0.29945968  0.48198473    -0.40100
O3186       O  0.61088178  0.31771933  0.43910892    -0.40100
C3187       C  0.61912589  0.15529585  0.50526540    -0.12400
C3188       C  0.64939197  0.14625888  0.50098342     0.04600
C3189       C  0.64984397  0.12108648  0.97763716    -0.07700
C3190       C  0.62651145  0.09945415  0.97960645    -0.08400
C3191       C  0.60138078  0.10258042  0.50190285    -0.03000
C3192       C  0.59544455  0.13405929  0.50655330     0.03800
N3193       N  0.56604318  0.14506068  0.51469509     0.66300
H3194       H  0.61359858  0.17917723  0.50836309     0.15200
H3195       H  0.62843910  0.07857264  0.96685809     0.14900
N3196       N  0.67474275  0.11525686  0.95753107     0.74000
O3197       O  0.56004711  0.14839789  0.54268216    -0.39400
O3198       O  0.55232338  0.15778225  0.02227429    -0.39300
O3199       O  0.69762311  0.09058254  0.51854838    -0.40100
O3200       O  0.67125223  0.11993819  0.92926515    -0.40100
C3201       C  0.84600120  0.51077149  0.87962812    -0.12400
C3202       C  0.85167808  0.00258060  0.85198658     0.04600
C3203       C  0.88137915  0.01408100  0.84740456    -0.07700
C3204       C  0.90297693  0.01202247  0.87082252    -0.08400
C3205       C  0.89597152  0.99896663  0.89933264    -0.03000
C3206       C  0.86736314  0.51185743  0.90325187     0.03800
N3207       N  0.85784266  0.52392783  0.93199251     0.66300
H3208       H  0.82309397  0.51824231  0.88443543     0.15200
H3209       H  0.92538071  0.02137246  0.86670760     0.14900
N3210       N  0.88997287  0.02906854  0.81966780     0.74000
O3211       O  0.84220056  0.98886101  0.95115924    -0.39400
O3212       O  0.83993993  0.50837887  0.94831842    -0.39300
O3213       O  0.89005604  0.05788545  0.81892637    -0.40100
O3214       O  0.89247008  0.44952506  0.81303407    -0.40100
C3215       C  0.59387497  0.99117042  0.86748874    -0.12400
C3216       C  0.60277263  0.99792690  0.89755814     0.04600
C3217       C  0.63224576  0.51140829  0.90354447    -0.07700
C3218       C  0.65400302  0.51056625  0.88022612    -0.08400
C3219       C  0.64598918  0.99567007  0.84912511    -0.03000
C3220       C  0.61491786  0.98959198  0.84350090     0.03800
N3221       N  0.60399381  0.98158104  0.81385139     0.66300
H3222       H  0.57021615  0.98719729  0.86228277     0.15200
H3223       H  0.67661512  0.51891730  0.88511734     0.14900
N3224       N  0.64122004  0.52323019  0.93252358     0.74000
O3225       O  0.60991143  0.44719199  0.81435857    -0.39400
O3226       O  0.59055242  0.00167097  0.79815155    -0.39300
O3227       O  0.65585917  0.50611692  0.95048824    -0.40100
O3228       O  0.65145564  0.03982028  0.93628714    -0.40100
C3229       C  0.61939614  0.51131525  0.65528354    -0.12400
C3230       C  0.64956310  0.99913492  0.64549095     0.04600
C3231       C  0.65471646  0.99193077  0.61438745    -0.07700
C3232       C  0.63075013  0.99312119  0.59358311    -0.08400
C3233       C  0.60122712  0.00096519  0.60274530    -0.03000
C3234       C  0.59576119  0.51173051  0.63398241     0.03800
N3235       N  0.56764763  0.52540370  0.64279710     0.66300
H3236       H  0.61520080  0.52068275  0.67780624     0.15200
H3237       H  0.63546246  0.98737636  0.56998605     0.14900
N3238       N  0.68369565  0.98249092  0.60325384     0.74000
O3239       O  0.55057892  0.51120616  0.66114075    -0.39400
O3240       O  0.56368212  0.04611904  0.65006274    -0.39300
O3241       O  0.68438897  0.44661557  0.61083220    -0.40100
O3242       O  0.69900065  0.00119670  0.58764242    -0.40100
C3243       C  0.87047612  0.00577158  0.59491612    -0.12400
C3244       C  0.90010199  0.99866307  0.60426381     0.04600
C3245       C  0.90083015  0.48320746  0.63028074    -0.07700
C3246       C  0.87744010  0.48494164  0.65182871    -0.08400
C3247       C  0.85180666  0.00158797  0.64713305    -0.03000
C3248       C  0.84655232  0.00750111  0.61573853     0.03800
N3249       N  0.81751088  0.01640503  0.60430625     0.66300
H3250       H  0.86562185  0.01062668  0.57110755     0.15200
H3251       H  0.88042100  0.47348438  0.67363137     0.14900
N3252       N  0.92710315  0.46560849  0.63781368     0.74000
O3253       O  0.81300281  0.04425867  0.59830096    -0.39400
O3254       O  0.80103889  0.51944145  0.59073939    -0.39300
O3255       O  0.94917809  0.00504228  0.66253629    -0.40100
O3256       O  0.92671053  0.43723741  0.63284020    -0.40100
C3257       C  0.98705367  0.09366979  0.86831837    -0.12400
C3258       C  0.49966500  0.10156633  0.89690098     0.04600
C3259       C  0.51129254  0.13124306  0.90149986    -0.07700
C3260       C  0.50955615  0.15285782  0.87808345    -0.08400
C3261       C  0.49773460  0.14556554  0.84930388    -0.03000
C3262       C  0.98614943  0.11524720  0.84469854     0.03800
N3263       N  0.97298486  0.10649926  0.81622253     0.66300
H3264       H  0.97827542  0.07098352  0.86396462     0.15200
H3265       H  0.51817930  0.17551988  0.88238265     0.14900
N3266       N  0.52649484  0.13958871  0.92905331     0.74000
O3267       O  0.98830855  0.09020605  0.79813876    -0.39400
O3268       O  0.94448143  0.10701573  0.81357973    -0.39300
O3269       O  0.55502589  0.13732928  0.93012193    -0.40100
O3270       O  0.51324739  0.15719743  0.94755091    -0.40100
C3271       C  0.51875306  0.37521014  0.85029405    -0.12400
C3272       C  0.50082173  0.34929528  0.85541247     0.04600
C3273       C  0.98683059  0.34556606  0.88405770    -0.07700
C3274       C  0.98830713  0.36943305  0.90516332    -0.08400
C3275       C  0.50408610  0.39623242  0.89958992    -0.03000
C3276       C  0.52069416  0.39845550  0.87202045     0.03800
N3277       N  0.54074166  0.42331737  0.86603930     0.66300
H3278       H  0.53184376  0.37727844  0.82937660     0.15200
H3279       H  0.97821164  0.36602612  0.92752831     0.14900
N3280       N  0.97211672  0.31793459  0.89318710     0.74000
O3281       O  0.56853285  0.41996739  0.87213270    -0.39400
O3282       O  0.53309942  0.44285682  0.84622558    -0.39300
O3283       O  0.98657918  0.29912493  0.90954753    -0.40100
O3284       O  0.94349802  0.31720816  0.89353794    -0.40100
C3285       C  0.51883270  0.37607599  0.65047505    -0.12400
C3286       C  0.49783309  0.35239019  0.64930845     0.04600
C3287       C  0.97986042  0.34761759  0.62096103    -0.07700
C3288       C  0.98117002  0.37014321  0.59803076    -0.08400
C3289       C  0.49975605  0.39625354  0.60239756    -0.03000
C3290       C  0.52009048  0.39791524  0.62731001     0.03800
N3291       N  0.54344647  0.42043173  0.62868278     0.66300
H3292       H  0.53511915  0.37698186  0.66895371     0.15200
H3293       H  0.96887847  0.36660754  0.57690096     0.14900
N3294       N  0.96164028  0.32102155  0.61646373     0.74000
O3295       O  0.54062379  0.44208881  0.64742365    -0.39400
O3296       O  0.56968654  0.41330037  0.61956536    -0.39300
O3297       O  0.93814966  0.31725815  0.63258744    -0.40100
O3298       O  0.97273735  0.29852984  0.60237284    -0.40100
C3299       C  0.50547420  0.13214985  0.59301912    -0.12400
C3300       C  0.49898368  0.10212399  0.60221063     0.04600
C3301       C  0.98971044  0.09610673  0.63390493    -0.07700
C3302       C  0.99183585  0.11972121  0.65510925    -0.08400
C3303       C  0.50172666  0.15035381  0.64546013    -0.03000
C3304       C  0.50714732  0.15604358  0.61404202     0.03800
N3305       N  0.51559367  0.18547246  0.60280962     0.66300
H3306       H  0.50964260  0.13732496  0.56918358     0.15200
H3307       H  0.98669132  0.11459348  0.67878798     0.14900
N3308       N  0.97848199  0.06745292  0.64440143     0.74000
O3309       O  0.54341346  0.19115195  0.59922318    -0.39400
O3310       O  0.49658284  0.20038026  0.58725312    -0.39300
O3311       O  0.99609945  0.05013089  0.65915875    -0.40100
O3312       O  0.95023335  0.06483093  0.64829421    -0.40100
O3313       O  0.50010177  0.54901031  0.08835037    -0.75900
O3314       O  0.49938455  0.55105353  0.41532532    -0.81800
O3315       O  0.54861146  0.58807241  0.00077368    -0.78800
O3316       O  0.95076530  0.58779461  0.00251760    -0.77200
O3317       O  0.91478128  0.55042976  0.00191884    -0.79000
O3318       O  0.58525596  0.55131233  0.00062453    -0.79900
O3319       O  0.49860561  0.58781358  0.45229075    -0.81300
O3320       O  0.50071204  0.58566612  0.05102444    -0.81600
Eu3321     Eu  0.49987208  0.56151129  0.00042999     2.39200
O3322       O  0.96949890  0.53221902  0.46886542    -0.89100
O3323       O  0.53110161  0.53107518  0.03156171    -0.92700
C3324       C  0.50040610  0.57702834  0.07927557     1.02000
C3325       C  0.49854629  0.57919991  0.42415353     1.01800
C3326       C  0.57656687  0.57954878  0.00094281     1.01800
C3327       C  0.92295464  0.57878160  0.00275347     0.99600
H3328       H  0.54395047  0.54304794  0.45691475     0.29400
O3329       O  0.53140446  0.53038793  0.46973313    -1.01500
H3330       H  0.95686401  0.54224927  0.04492715     0.29400
O3331       O  0.96949616  0.52991648  0.03192974    -1.04000
O3332       O  0.50086013  0.94876425  0.41316025    -0.81200
O3333       O  0.50082864  0.95029144  0.08800306    -0.80800
O3334       O  0.58898580  0.49830740  0.45183708    -0.79200
O3335       O  0.91329803  0.50229988  0.44915861    -0.82500
O3336       O  0.91568105  0.49795026  0.05119275    -0.80400
O3337       O  0.58627986  0.50119777  0.05052219    -0.79000
O3338       O  0.55237528  0.91464272  0.99945690    -0.80600
O3339       O  0.95006527  0.91307725  0.00295365    -0.82500
O3340       O  0.58866731  0.95197597  0.99950996    -0.79200
O3341       O  0.91284409  0.94945157  0.00369006    -0.81900
O3342       O  0.55243041  0.49847968  0.41483647    -0.77600
O3343       O  0.55001815  0.50165114  0.08788847    -0.77700
O3344       O  0.95197271  0.49668963  0.08845686    -0.77300
O3345       O  0.95041393  0.50253513  0.41270597    -0.80800
O3346       O  0.49937174  0.91217032  0.45062335    -0.80200
O3347       O  0.50069888  0.91325349  0.05135879    -0.78600
Eu3348     Eu  0.50072226  0.49981940  0.43836741     2.39800
Eu3349     Eu  0.50057939  0.49957386  0.06255781     2.39600
Eu3350     Eu  0.56151912  0.50035799  0.00018009     2.38400
Eu3351     Eu  0.93891303  0.49965573  0.00027225     2.39900
Eu3352     Eu  0.50114758  0.93794470  0.00064998     2.39800
O3353       O  0.96964173  0.96874807  0.03190340    -0.93000
O3354       O  0.53033447  0.96817471  0.47006605    -0.91900
C3355       C  0.50037571  0.92069616  0.42226609     1.02200
C3356       C  0.50061553  0.92212901  0.07952797     1.00900
C3357       C  0.58059402  0.49815698  0.42361244     1.00300
C3358       C  0.92221286  0.50270305  0.42104460     1.02300
C3359       C  0.92418456  0.49701688  0.07942440     1.01200
C3360       C  0.57783836  0.50185822  0.07883181     1.00100
C3361       C  0.58034628  0.92375885  0.99916243     1.00100
C3362       C  0.92188311  0.92143473  0.00397902     1.02800
H3363       H  0.54501417  0.95672462  0.04394153     0.30100
O3364       O  0.53218149  0.96925828  0.03120574    -1.05100
H3365       H  0.95722428  0.95590944  0.45691641     0.32200
O3366       O  0.96972316  0.96863451  0.46953272    -1.07700
O3367       O  0.50432144  0.70057936  0.16126993    -0.80300
O3368       O  0.49941108  0.69801476  0.33580599    -0.81800
O3369       O  0.54982395  0.66149494  0.24739164    -0.78800
O3370       O  0.95367540  0.66019667  0.25070770    -0.77200
O3371       O  0.91651431  0.69668783  0.24983086    -0.79000
O3372       O  0.58568491  0.69913481  0.24840747    -0.79900
O3373       O  0.50054028  0.66118309  0.29898931    -0.81300
O3374       O  0.50279169  0.66377484  0.19838339    -0.81600
Eu3375     Eu  0.50053807  0.68734137  0.24924273     2.39200
O3376       O  0.96973936  0.71824548  0.28000463    -0.89100
O3377       O  0.53172247  0.71893038  0.21933491    -0.92700
C3378       C  0.50430160  0.67251742  0.17017824     1.02000
C3379       C  0.50008471  0.66986478  0.32713193     1.01800
C3380       C  0.57757659  0.67074322  0.24715025     1.01800
C3381       C  0.92564792  0.66854124  0.25058786     0.99600
H3382       H  0.54334727  0.70543877  0.29383004     0.29400
O3383       O  0.53067191  0.71823776  0.28108774    -1.01500
H3384       H  0.95777904  0.70504779  0.20518227     0.29400
O3385       O  0.96997932  0.71813741  0.21791364    -1.04000
O3386       O  0.49655238  0.79759570  0.33861282    -0.81200
O3387       O  0.50042982  0.79930673  0.16316922    -0.80800
O3388       O  0.58480873  0.75013001  0.30203208    -0.79200
O3389       O  0.91135031  0.74844401  0.29750367    -0.82500
O3390       O  0.91454032  0.74747394  0.19824679    -0.80400
O3391       O  0.58844606  0.75072883  0.20161355    -0.79000
O3392       O  0.54867150  0.83845442  0.24956443    -0.80600
O3393       O  0.95000535  0.83742109  0.24790769    -0.82500
O3394       O  0.58524308  0.80139633  0.25058171    -0.79200
O3395       O  0.91394941  0.79995483  0.24687182    -0.81900
O3396       O  0.54782355  0.74936392  0.33871103    -0.77600
O3397       O  0.55192827  0.75003437  0.16472659    -0.77700
O3398       O  0.95102820  0.74756518  0.16105779    -0.77300
O3399       O  0.94795819  0.74848039  0.33440930    -0.80800
O3400       O  0.49832320  0.83474860  0.30178446    -0.80200
O3401       O  0.49867180  0.83591208  0.20017079    -0.78600
Eu3402     Eu  0.49875953  0.74862698  0.31176344     2.39800
Eu3403     Eu  0.50117236  0.74952635  0.18791956     2.39600
Eu3404     Eu  0.56163594  0.75008644  0.25087093     2.38400
Eu3405     Eu  0.93853591  0.74876901  0.24873054     2.39900
Eu3406     Eu  0.49976544  0.81140403  0.25046708     2.39800
O3407       O  0.96936942  0.78036501  0.21847196    -0.93000
O3408       O  0.53022308  0.78044526  0.28190817    -0.91900
C3409       C  0.49697463  0.82576720  0.32997974     1.02200
C3410       C  0.49900008  0.82725709  0.17202225     1.00900
C3411       C  0.57589824  0.74984707  0.33022323     1.00300
C3412       C  0.91989297  0.74835345  0.32566187     1.02300
C3413       C  0.92304621  0.74708318  0.16998377     1.01200
C3414       C  0.57992931  0.75053706  0.17341213     1.00100
C3415       C  0.57664317  0.82969418  0.24982510     1.00100
C3416       C  0.92225735  0.82838482  0.24660886     1.02800
H3417       H  0.54373887  0.79383014  0.20680605     0.30100
O3418       O  0.53108876  0.78091101  0.21939895    -1.05100
H3419       H  0.95506128  0.79269208  0.29282993     0.32200
O3420       O  0.96818286  0.78021820  0.28039391    -1.07700
O3421       O  0.83490378  0.00245023  0.19825206    -0.80300
O3422       O  0.66435107  0.00024069  0.19893209    -0.81800
O3423       O  0.74996743  0.94950166  0.16388749    -0.78800
O3424       O  0.74737870  0.55009996  0.16143801    -0.77200
O3425       O  0.74909015  0.58644728  0.19882596    -0.79000
O3426       O  0.74966282  0.91220888  0.20037525    -0.79900
O3427       O  0.70087199  0.99967378  0.16188077    -0.81300
O3428       O  0.79859931  0.00252370  0.16103661    -0.81600
Eu3429     Eu  0.74981793  0.00000392  0.18803091     2.39200
O3430       O  0.72070398  0.53149060  0.21838090    -0.89100
O3431       O  0.78116737  0.96893444  0.21843864    -0.92700
C3432       C  0.82644886  0.00317128  0.16996945     1.02000
C3433       C  0.67298008  0.99984906  0.17066018     1.01800
C3434       C  0.74963941  0.92120667  0.17232715     1.01800
C3435       C  0.74731016  0.57807408  0.17056245     0.99600
H3436       H  0.70628221  0.95597421  0.20602985     0.29400
O3437       O  0.71892159  0.96872335  0.21865332    -1.01500
H3438       H  0.79407830  0.54380619  0.20454144     0.29400
O3439       O  0.78149940  0.53104199  0.21744145    -1.04000
O3440       O  0.66189634  0.99841898  0.29853156    -0.81200
O3441       O  0.83802970  0.00095960  0.29857355    -0.80800
O3442       O  0.70107261  0.91158593  0.25102409    -0.79200
O3443       O  0.70271694  0.58912788  0.24986013    -0.82500
O3444       O  0.80207130  0.58686732  0.24805167    -0.80400
O3445       O  0.79957526  0.91245695  0.24917287    -0.79000
O3446       O  0.74717164  0.94937390  0.33759020    -0.80600
O3447       O  0.75149794  0.54858423  0.33782547    -0.82500
O3448       O  0.74761825  0.91338795  0.29988802    -0.79200
O3449       O  0.75363364  0.58604880  0.30130838    -0.81900
O3450       O  0.66466088  0.94880682  0.25069016    -0.77600
O3451       O  0.83615566  0.94943117  0.24799348    -0.77700
O3452       O  0.83789752  0.54900845  0.24819729    -0.77300
O3453       O  0.66610113  0.55222499  0.24820994    -0.80800
O3454       O  0.69868214  0.99887409  0.33523539    -0.80200
O3455       O  0.80151369  0.99926188  0.33569846    -0.78600
Eu3456     Eu  0.68847815  0.99993570  0.24969192     2.39800
Eu3457     Eu  0.81159299  0.00036640  0.24930676     2.39600
Eu3458     Eu  0.75014937  0.93811241  0.24977702     2.38400
Eu3459     Eu  0.75172859  0.56228986  0.24962100     2.39900
Eu3460     Eu  0.75025625  0.99940477  0.31219326     2.39800
O3461       O  0.78236403  0.53032387  0.27967669    -0.93000
O3462       O  0.71957153  0.96913286  0.28064435    -0.91900
C3463       C  0.67052245  0.99828337  0.32662204     1.02200
C3464       C  0.82958825  0.00027632  0.32680719     1.00900
C3465       C  0.67316598  0.92048855  0.25127393     1.00300
C3466       C  0.67475248  0.58048237  0.24883941     1.02300
C3467       C  0.82986599  0.57743013  0.24792811     1.01200
C3468       C  0.82750399  0.92115547  0.24840732     1.00100
C3469       C  0.74634338  0.92149132  0.32818249     1.00100
C3470       C  0.75282714  0.57682037  0.32951223     1.02800
H3471       H  0.79397602  0.95583055  0.29343197     0.30100
O3472       O  0.78130962  0.96870338  0.28085839    -1.05100
H3473       H  0.70777576  0.54399055  0.29322181     0.32200
O3474       O  0.72026998  0.53134320  0.28029053    -1.07700
O3475       O  0.70201806  0.66055440  0.49931842    -0.80300
O3476       O  0.69814047  0.83483737  0.49703261    -0.81800
O3477       O  0.66140201  0.75161820  0.04742562    -0.78800
O3478       O  0.66453870  0.74959544  0.44854674    -0.77200
O3479       O  0.70102473  0.74920406  0.41140228    -0.79000
O3480       O  0.69787175  0.75208900  0.08437647    -0.79900
O3481       O  0.66159188  0.79771764  0.49619682    -0.81300
O3482       O  0.66526997  0.69728283  0.49861626    -0.81600
Eu3483     Eu  0.68850716  0.74858642  0.49904722     2.39200
O3484       O  0.71947125  0.77931433  0.46787237    -0.89100
O3485       O  0.71836500  0.72021386  0.03039612    -0.92700
C3486       C  0.67404252  0.66905267  0.49840522     1.02000
C3487       C  0.67009473  0.82591002  0.49620235     1.01800
C3488       C  0.66986242  0.75191068  0.07562174     1.01800
C3489       C  0.67305150  0.74990901  0.42029579     0.99600
H3490       H  0.70593466  0.79549147  0.04141202     0.29400
O3491       O  0.71874253  0.78227337  0.02918319    -1.01500
H3492       H  0.70726873  0.70424472  0.45572184     0.29400
O3493       O  0.71958668  0.71727142  0.46860044    -1.04000
O3494       O  0.80081652  0.83542282  0.49802418    -0.81200
O3495       O  0.79993027  0.66170041  0.49901317    -0.80800
O3496       O  0.74982775  0.80312443  0.08367899    -0.79200
O3497       O  0.75006258  0.79675180  0.41021202    -0.82500
O3498       O  0.75306561  0.69787094  0.41360455    -0.80400
O3499       O  0.74733538  0.70267227  0.08806988    -0.79000
O3500       O  0.83421899  0.74914741  0.05228591    -0.80600
O3501       O  0.83823516  0.74765746  0.45104517    -0.82500
O3502       O  0.79740428  0.75143541  0.08902445    -0.79200
O3503       O  0.80153809  0.74712666  0.41428817    -0.81900
O3504       O  0.75090803  0.83994872  0.04668629    -0.77600
O3505       O  0.74728487  0.66543118  0.05155721    -0.77700
O3506       O  0.75303819  0.66159392  0.45135219    -0.77300
O3507       O  0.74848192  0.83411460  0.44655488    -0.80800
O3508       O  0.83763818  0.79864945  0.49895323    -0.80200
O3509       O  0.83618082  0.69902053  0.50005820    -0.78600
Eu3510     Eu  0.74963611  0.81149877  0.49795029     2.39800
Eu3511     Eu  0.75060986  0.68752220  0.50083248     2.39600
Eu3512     Eu  0.74877194  0.75167319  0.06128107     2.38400
Eu3513     Eu  0.75067087  0.74814638  0.43759943     2.39900
Eu3514     Eu  0.81163929  0.74947547  0.50026201     2.39800
O3515       O  0.78133928  0.71810757  0.46954579    -0.93000
O3516       O  0.78089227  0.78123666  0.03043925    -0.91900
C3517       C  0.82898762  0.82674063  0.49841548     1.02200
C3518       C  0.82772774  0.67080447  0.49906071     1.00900
C3519       C  0.75048820  0.83133807  0.07485884     1.00300
C3520       C  0.74885805  0.82490512  0.41852087     1.02300
C3521       C  0.75397859  0.66998453  0.42307731     1.01200
C3522       C  0.74700270  0.67451566  0.07964137     1.00100
C3523       C  0.82543607  0.75019100  0.08048134     1.00100
C3524       C  0.82959383  0.74690055  0.42292478     1.02800
H3525       H  0.79180492  0.70608383  0.04520797     0.30100
O3526       O  0.77963943  0.71893914  0.03188500    -1.05100
H3527       H  0.79394558  0.79257659  0.45490896     0.32200
O3528       O  0.78106673  0.77996682  0.46806546    -1.07700
C3529       C  0.75722652  0.63153872  0.15468041    -0.12400
C3530       C  0.74579285  0.60262449  0.14715915     0.04600
C3531       C  0.73362701  0.59815000  0.11758311    -0.07700
C3532       C  0.73399028  0.62204108  0.09634581    -0.08400
C3533       C  0.74619288  0.65065726  0.10365354    -0.03000
C3534       C  0.75766622  0.65538206  0.13342007     0.03800
N3535       N  0.77084828  0.68375646  0.14239817     0.66300
H3536       H  0.76645691  0.63570169  0.17720474     0.15200
H3537       H  0.72441120  0.61809778  0.07390951     0.14900
N3538       N  0.71991910  0.57000138  0.10871650     0.74000
O3539       O  0.75520147  0.70201693  0.15817657    -0.39400
O3540       O  0.79937409  0.68619271  0.14265223    -0.39300
O3541       O  0.69137652  0.56786970  0.10959316    -0.40100
O3542       O  0.73459036  0.55226717  0.09146021    -0.40100
C3543       C  0.74572636  0.84551211  0.12951330    -0.12400
C3544       C  0.75034784  0.85502200  0.09916219     0.04600
C3545       C  0.75427760  0.88662350  0.09332154    -0.07700
C3546       C  0.75391803  0.90735016  0.11749797    -0.08400
C3547       C  0.74939590  0.89778350  0.14783072    -0.03000
C3548       C  0.74496182  0.86627359  0.15361481     0.03800
N3549       N  0.73856446  0.85464093  0.18347895     0.66300
H3550       H  0.74212369  0.82160763  0.13487191     0.15200
H3551       H  0.75741568  0.93128796  0.11220022     0.14900
N3552       N  0.75924508  0.89850325  0.06329948     0.74000
O3553       O  0.71120686  0.85119751  0.19130256    -0.39400
O3554       O  0.75874343  0.83933360  0.19710133    -0.39300
O3555       O  0.73756027  0.91179782  0.04992048    -0.40100
O3556       O  0.78601792  0.90507185  0.05551715    -0.40100
C3557       C  0.75669081  0.86796889  0.34327967    -0.12400
C3558       C  0.74483922  0.89663275  0.35115212     0.04600
C3559       C  0.73244866  0.90059693  0.38066180    -0.07700
C3560       C  0.73376409  0.87673124  0.40185071    -0.08400
C3561       C  0.74723232  0.84864671  0.39449235    -0.03000
C3562       C  0.75842665  0.84422122  0.36454158     0.03800
N3563       N  0.77298391  0.81652111  0.35546949     0.66300
H3564       H  0.76526774  0.86399031  0.32048138     0.15200
H3565       H  0.72389709  0.88027615  0.42427757     0.14900
N3566       N  0.71702374  0.92794278  0.38925650     0.74000
O3567       O  0.75861195  0.79805552  0.33881843    -0.39400
O3568       O  0.80158892  0.81541789  0.35566028    -0.39300
O3569       O  0.68843361  0.92848334  0.38778839    -0.40100
O3570       O  0.73025061  0.94638361  0.40686347    -0.40100
C3571       C  0.77133102  0.62676814  0.35003564    -0.12400
C3572       C  0.75371239  0.60021675  0.35413026     0.04600
C3573       C  0.73787188  0.59634937  0.38214979    -0.07700
C3574       C  0.73863544  0.61921649  0.40427916    -0.08400
C3575       C  0.75548076  0.64580456  0.39979188    -0.03000
C3576       C  0.77279786  0.64917117  0.37291235     0.03800
N3577       N  0.79331543  0.67426612  0.36961154     0.66300
H3578       H  0.78468697  0.62970379  0.32941518     0.15200
H3579       H  0.72542994  0.61631828  0.42500451     0.14900
N3580       N  0.72004138  0.56989267  0.38855457     0.74000
O3581       O  0.81645296  0.67553622  0.38654121    -0.39400
O3582       O  0.78482493  0.69796053  0.35552092    -0.39300
O3583       O  0.73070808  0.55008689  0.40662388    -0.40100
O3584       O  0.69163020  0.57179521  0.38559371    -0.40100
C3585       C  0.87477322  0.65080439  0.23489807    -0.12400
C3586       C  0.90198119  0.64440894  0.25016703     0.04600
C3587       C  0.90562208  0.61530738  0.26396931    -0.07700
C3588       C  0.88190789  0.59398163  0.26282342    -0.08400
C3589       C  0.85445310  0.60069379  0.24795674    -0.03000
C3590       C  0.85126958  0.62946553  0.23356773     0.03800
N3591       N  0.82498187  0.63717178  0.21619411     0.66300
H3592       H  0.87176521  0.67253580  0.22333037     0.15200
H3593       H  0.88488830  0.57212044  0.27409825     0.14900
N3594       N  0.93271756  0.60703197  0.27988652     0.74000
O3595       O  0.80546991  0.65467974  0.22796007    -0.39400
O3596       O  0.82635235  0.63511227  0.18746021    -0.39300
O3597       O  0.93321121  0.60920872  0.30864321    -0.40100
O3598       O  0.95128087  0.58927442  0.26698673    -0.40100
C3599       C  0.87997923  0.90411306  0.23547784    -0.12400
C3600       C  0.85135752  0.89703494  0.24762625     0.04600
C3601       C  0.84630346  0.86701554  0.25861442    -0.07700
C3602       C  0.86932690  0.84508135  0.25682576    -0.08400
C3603       C  0.89816973  0.85228712  0.24551611    -0.03000
C3604       C  0.90336571  0.88240493  0.23469502     0.03800
N3605       N  0.93200186  0.89156268  0.22244171     0.66300
H3606       H  0.88442880  0.92679351  0.22654273     0.15200
H3607       H  0.86486716  0.82242195  0.26552895     0.14900
N3608       N  0.81917718  0.85897634  0.27451170     0.74000
O3609       O  0.93576962  0.89107261  0.19384793    -0.39400
O3610       O  0.94894340  0.90835183  0.23841574    -0.39300
O3611       O  0.80077451  0.84077796  0.26211710    -0.40100
O3612       O  0.81878250  0.86185209  0.30318571    -0.40100
C3613       C  0.62165926  0.59605886  0.23717608    -0.12400
C3614       C  0.65054205  0.60431319  0.24791963     0.04600
C3615       C  0.65516781  0.63492218  0.25723414    -0.07700
C3616       C  0.63113166  0.65578477  0.25644386    -0.08400
C3617       C  0.60216238  0.64740463  0.24621871    -0.03000
C3618       C  0.59770534  0.61706490  0.23601026     0.03800
N3619       N  0.56961381  0.60720484  0.22311667     0.66300
H3620       H  0.61756454  0.57308153  0.22902733     0.15200
H3621       H  0.63529285  0.67880322  0.26443871     0.14900
N3622       N  0.68374239  0.64548633  0.26828801     0.74000
O3623       O  0.56638138  0.60852849  0.19448007    -0.39400
O3624       O  0.55323117  0.58896473  0.23823085    -0.39300
O3625       O  0.69995842  0.66165055  0.25079824    -0.40100
O3626       O  0.68753052  0.64757482  0.29679308    -0.40100
C3627       C  0.62907124  0.84604153  0.26288884    -0.12400
C3628       C  0.60088256  0.85344150  0.24990168     0.04600
C3629       C  0.59692815  0.88314180  0.23759060    -0.07700
C3630       C  0.62073671  0.90425407  0.23850113    -0.08400
C3631       C  0.64889358  0.89684833  0.25147023    -0.03000
C3632       C  0.65288218  0.86718605  0.26384537     0.03800
N3633       N  0.68028097  0.85827993  0.27881902     0.66300
H3634       H  0.63264645  0.82368645  0.27299280     0.15200
H3635       H  0.61721493  0.92656559  0.22827123     0.14900
N3636       N  0.56983366  0.89195042  0.22211104     0.74000
O3637       O  0.68190750  0.86113366  0.30746564    -0.39400
O3638       O  0.69751707  0.83932131  0.26576751    -0.39300
O3639       O  0.55194335  0.91028258  0.23518118    -0.40100
O3640       O  0.56959820  0.89046925  0.19332486    -0.40100
C3641       C  0.87005583  0.75910057  0.15490865    -0.12400
C3642       C  0.89844169  0.74693273  0.14669347     0.04600
C3643       C  0.90207325  0.73515105  0.11685599    -0.07700
C3644       C  0.87790919  0.73641905  0.09614902    -0.08400
C3645       C  0.84967136  0.74908972  0.10418402    -0.03000
C3646       C  0.84585375  0.76027479  0.13426191     0.03800
N3647       N  0.81814905  0.77396803  0.14427012     0.66300
H3648       H  0.86658467  0.76842168  0.17757290     0.15200
H3649       H  0.88136189  0.72700958  0.07351863     0.14900
N3650       N  0.92956076  0.72079421  0.10720049     0.74000
O3651       O  0.80028142  0.75830742  0.16052493    -0.39400
O3652       O  0.81670814  0.80271237  0.14577215    -0.39300
O3653       O  0.93034463  0.69202182  0.10569862    -0.40100
O3654       O  0.94804296  0.73603588  0.09126353    -0.40100
C3655       C  0.59396363  0.74988781  0.11824926    -0.12400
C3656       C  0.60347692  0.75107645  0.14890114     0.04600
C3657       C  0.63499185  0.75282889  0.15487243    -0.07700
C3658       C  0.65568358  0.75336973  0.13065930    -0.08400
C3659       C  0.64620770  0.75195530  0.10002976    -0.03000
C3660       C  0.61467857  0.75022714  0.09402471     0.03800
N3661       N  0.60286067  0.74849442  0.06368965     0.66300
H3662       H  0.57005604  0.74848269  0.11269699     0.15200
H3663       H  0.67958608  0.75477149  0.13622864     0.14900
N3664       N  0.64687143  0.75392078  0.18520342     0.74000
O3665       O  0.59509356  0.72274980  0.05346850    -0.39400
O3666       O  0.59156640  0.77223220  0.05183999    -0.39300
O3667       O  0.65838619  0.72997581  0.19640613    -0.40100
O3668       O  0.65455174  0.77945840  0.19599024    -0.40100
C3669       C  0.61945670  0.74040604  0.40530825    -0.12400
C3670       C  0.64854220  0.75059862  0.39689826     0.04600
C3671       C  0.65300180  0.76137404  0.36671976    -0.07700
C3672       C  0.62901219  0.76086730  0.34580383    -0.08400
C3673       C  0.60001116  0.75032623  0.35407442    -0.03000
C3674       C  0.59530994  0.74039988  0.38455810     0.03800
N3675       N  0.56649540  0.72973213  0.39507538     0.66300
H3676       H  0.61526367  0.73207018  0.42828915     0.15200
H3677       H  0.63315524  0.76944407  0.32290301     0.14900
N3678       N  0.68111688  0.77441982  0.35705271     0.74000
O3679       O  0.56215802  0.70132118  0.39721801    -0.39400
O3680       O  0.55020685  0.74749092  0.41078153    -0.39300
O3681       O  0.69752965  0.75969324  0.33858778    -0.40100
O3682       O  0.68443884  0.80297705  0.35891628    -0.40100
C3683       C  0.90510746  0.74110129  0.38004623    -0.12400
C3684       C  0.89618043  0.74781306  0.34996411     0.04600
C3685       C  0.86503314  0.75351046  0.34429226    -0.07700
C3686       C  0.84417548  0.75268346  0.36835173    -0.08400
C3687       C  0.85315600  0.74636492  0.39849226    -0.03000
C3688       C  0.88421261  0.74016524  0.40409874     0.03800
N3689       N  0.89518578  0.73156481  0.43360505     0.66300
H3690       H  0.92862973  0.73600564  0.38515898     0.15200
H3691       H  0.82061274  0.75743727  0.36316837     0.14900
N3692       N  0.85387238  0.76132040  0.31466373     0.74000
O3693       O  0.89817945  0.70351077  0.43955108    -0.39400
O3694       O  0.91102323  0.75044287  0.44829247    -0.39300
O3695       O  0.83941951  0.74142126  0.29982575    -0.40100
O3696       O  0.84922685  0.78912636  0.30870137    -0.40100
C3697       C  0.84480141  0.88055937  0.50737854    -0.12400
C3698       C  0.85486368  0.84916832  0.00116588     0.04600
C3699       C  0.88551474  0.84386303  0.99285757    -0.07700
C3700       C  0.90667958  0.86761195  0.99447904    -0.08400
C3701       C  0.89846765  0.89692622  0.00447305    -0.03000
C3702       C  0.86630416  0.90398189  0.50939276     0.03800
N3703       N  0.85634514  0.93286080  0.52070655     0.66300
H3704       H  0.82150947  0.88572568  0.51328341     0.15200
H3705       H  0.92974667  0.86300943  0.98719688     0.14900
N3706       N  0.89575556  0.81500532  0.98172298     0.74000
O3707       O  0.84195656  0.95042576  0.50298866    -0.39400
O3708       O  0.85501432  0.93257706  0.05466800    -0.39300
O3709       O  0.90057835  0.81119406  0.45535311    -0.40100
O3710       O  0.91058212  0.79788522  0.99954107    -0.40100
C3711       C  0.87322158  0.59867238  0.48352037    -0.12400
C3712       C  0.89839538  0.60222315  0.00370910     0.04600
C3713       C  0.90370346  0.63363640  0.00919639    -0.07700
C3714       C  0.87959261  0.65440033  0.00831672    -0.08400
C3715       C  0.84965362  0.64502146  0.00257964    -0.03000
C3716       C  0.84968433  0.62001751  0.48217525     0.03800
N3717       N  0.82439366  0.61375018  0.46279104     0.66300
H3718       H  0.87159825  0.57818795  0.46995424     0.15200
H3719       H  0.88460190  0.67822622  0.01260950     0.14900
N3720       N  0.93301973  0.64516851  0.01682209     0.74000
O3721       O  0.82677700  0.61928989  0.43456064    -0.39400
O3722       O  0.80147553  0.58727637  0.01416509    -0.39300
O3723       O  0.94486983  0.65558420  0.53373689    -0.40100
O3724       O  0.93952055  0.64862987  0.04467384    -0.40100
C3725       C  0.65142020  0.87636142  0.51391870    -0.12400
C3726       C  0.64875868  0.85289639  0.99418085     0.04600
C3727       C  0.61888130  0.84806514  0.98329236    -0.07700
C3728       C  0.59729926  0.87146401  0.98514549    -0.08400
C3729       C  0.60446118  0.89999482  0.99768146    -0.03000
C3730       C  0.62961925  0.89956137  0.51617437     0.03800
N3731       N  0.63629557  0.92527041  0.53496056     0.66300
H3732       H  0.67259135  0.87892545  0.52622936     0.15200
H3733       H  0.57470452  0.86719586  0.97640196     0.14900
N3734       N  0.60991923  0.81993076  0.96959056     0.74000
O3735       O  0.63267854  0.92280598  0.56348424    -0.39400
O3736       O  0.65407941  0.94546856  0.52479526    -0.39300
O3737       O  0.59359001  0.80177355  0.98485652    -0.40100
O3738       O  0.60981778  0.81806132  0.94080861    -0.40100
C3739       C  0.61789796  0.65648648  0.00268616    -0.12400
C3740       C  0.64838637  0.64727600  0.00155272     0.04600
C3741       C  0.65617260  0.61339203  0.49954622    -0.07700
C3742       C  0.63229860  0.59242405  0.49955430    -0.08400
C3743       C  0.60056569  0.60355197  0.00152893    -0.03000
C3744       C  0.59418095  0.63529744  0.00254631     0.03800
N3745       N  0.56391495  0.64693357  0.00293394     0.66300
H3746       H  0.61210258  0.68053018  0.00334825     0.15200
H3747       H  0.63779764  0.56846802  0.50250782     0.14900
N3748       N  0.68627539  0.60160580  0.50229563     0.74000
O3749       O  0.55326425  0.65674094  0.02782154    -0.39400
O3750       O  0.55923292  0.64936474  0.45731484    -0.39300
O3751       O  0.69639975  0.59219183  0.02331629    -0.40100
O3752       O  0.69967756  0.59265010  0.47843378    -0.40100
C3753       C  0.84593847  0.99026404  0.38045700    -0.12400
C3754       C  0.85543429  0.50041660  0.34800818     0.04600
C3755       C  0.88703427  0.49851159  0.34180220    -0.07700
C3756       C  0.90797539  0.49942951  0.36586237    -0.08400
C3757       C  0.89868089  0.50274208  0.39642865    -0.03000
C3758       C  0.86745977  0.98892768  0.40396069     0.03800
N3759       N  0.85788442  0.97713847  0.43286042     0.66300
H3760       H  0.82297340  0.98296845  0.38549458     0.15200
H3761       H  0.93186132  0.49752103  0.36029539     0.14900
N3762       N  0.89874825  0.49595818  0.31143666     0.74000
O3763       O  0.84728597  0.53782623  0.43881108    -0.39400
O3764       O  0.85432567  0.94866534  0.43565668    -0.39300
O3765       O  0.90927639  0.51957795  0.29867719    -0.40100
O3766       O  0.90773998  0.00088121  0.29852838    -0.40100
C3767       C  0.59661904  0.48914966  0.36955495    -0.12400
C3768       C  0.60476838  0.49739947  0.39944221     0.04600
C3769       C  0.63479177  0.99747507  0.40555237    -0.07700
C3770       C  0.65580166  0.99766280  0.38157263    -0.08400
C3771       C  0.64854663  0.49651443  0.35118759    -0.03000
C3772       C  0.61786834  0.48858233  0.34566300     0.03800
N3773       N  0.60766948  0.47904943  0.31623500     0.66300
H3774       H  0.57341121  0.48280805  0.36449295     0.15200
H3775       H  0.67969671  0.99785181  0.38736406     0.14900
N3776       N  0.64648344  0.99730930  0.43598492     0.74000
O3777       O  0.59598630  0.97065671  0.30310225    -0.39400
O3778       O  0.59181329  0.49724511  0.30051466    -0.39300
O3779       O  0.65595729  0.97238475  0.44698787    -0.40100
O3780       O  0.64784007  0.54155667  0.44062091    -0.40100
C3781       C  0.61969761  0.00951071  0.15509800    -0.12400
C3782       C  0.64929439  0.49887645  0.14613678     0.04600
C3783       C  0.65308416  0.48573152  0.11688197    -0.07700
C3784       C  0.62984622  0.48819959  0.09530916    -0.08400
C3785       C  0.60198931  0.50186824  0.10240962    -0.03000
C3786       C  0.59607886  0.01032173  0.13385778     0.03800
N3787       N  0.56694199  0.02018052  0.14424302     0.66300
H3788       H  0.61487220  0.01651973  0.17834503     0.15200
H3789       H  0.63326271  0.47848846  0.07299508     0.14900
N3790       N  0.67910718  0.46775881  0.10926217     0.74000
O3791       O  0.55046460  0.00141188  0.15856026    -0.39400
O3792       O  0.56898532  0.55737996  0.14121665    -0.39300
O3793       O  0.68588084  0.95050457  0.10489843    -0.40100
O3794       O  0.69900544  0.47904880  0.09182297    -0.40100
C3795       C  0.87235199  0.51150417  0.09508382    -0.12400
C3796       C  0.89995968  0.49750748  0.10276996     0.04600
C3797       C  0.90370298  0.99219812  0.13435252    -0.07700
C3798       C  0.87965968  0.99312958  0.15508614    -0.08400
C3799       C  0.85177817  0.50034197  0.14545742    -0.03000
C3800       C  0.84844390  0.51318774  0.11594809     0.03800
N3801       N  0.82171277  0.52930207  0.10691545     0.66300
H3802       H  0.86935688  0.52190821  0.07275877     0.15200
H3803       H  0.88369082  0.98488879  0.17812162     0.14900
N3804       N  0.93223564  0.98100444  0.14505326     0.74000
O3805       O  0.82192013  0.55810448  0.10797525    -0.39400
O3806       O  0.80166700  0.01374220  0.08889110    -0.39300
O3807       O  0.94837039  0.48369878  0.15995868    -0.40100
O3808       O  0.93619764  0.95250855  0.14675247    -0.40100
C3809       C  0.01174576  0.59614574  0.37059041    -0.12400
C3810       C  0.49834896  0.60294407  0.39989007     0.04600
C3811       C  0.48887545  0.63342204  0.40487789    -0.07700
C3812       C  0.49002961  0.65458130  0.38091279    -0.08400
C3813       C  0.49992536  0.64622750  0.35154209    -0.03000
C3814       C  0.01274958  0.61703743  0.34646945     0.03800
N3815       N  0.02533212  0.60706586  0.31807942     0.66300
H3816       H  0.02053714  0.57335625  0.36668570     0.15200
H3817       H  0.48232061  0.67766870  0.38533335     0.14900
N3818       N  0.47645827  0.64319756  0.43341426     0.74000
O3819       O  0.05376268  0.60771034  0.31470361    -0.39400
O3820       O  0.01000996  0.58909028  0.30175131    -0.39300
O3821       O  0.49226802  0.66011041  0.45039251    -0.40100
O3822       O  0.44799437  0.64341269  0.43658209    -0.40100
C3823       C  0.51200225  0.87721411  0.34772040    -0.12400
C3824       C  0.49693197  0.84969809  0.35392777     0.04600
C3825       C  0.98190951  0.84818645  0.38167727    -0.07700
C3826       C  0.98435145  0.87134885  0.40353080    -0.08400
C3827       C  0.50015257  0.89645692  0.39856663    -0.03000
C3828       C  0.51390099  0.90035819  0.36956262     0.03800
N3829       N  0.53135478  0.92685322  0.36221337     0.66300
H3830       H  0.52323035  0.88059438  0.32590162     0.15200
H3831       H  0.97248845  0.86865864  0.42510380     0.14900
N3832       N  0.96296643  0.82261894  0.38855645     0.74000
O3833       O  0.55963969  0.92611119  0.36659003    -0.39400
O3834       O  0.52073147  0.94588768  0.34332003    -0.39300
O3835       O  0.97239850  0.80286636  0.40735287    -0.40100
O3836       O  0.93475671  0.82518397  0.38432544    -0.40100
C3837       C  0.50789314  0.88059697  0.15589123    -0.12400
C3838       C  0.49813472  0.85127190  0.14829232     0.04600
C3839       C  0.98060879  0.84792249  0.12047662    -0.07700
C3840       C  0.98205697  0.87103219  0.09826291    -0.08400
C3841       C  0.49991793  0.89817858  0.10368130    -0.03000
C3842       C  0.50915764  0.90386758  0.13415899     0.03800
N3843       N  0.52065183  0.93274967  0.14374560     0.66300
H3844       H  0.51486337  0.88563029  0.17902591     0.15200
H3845       H  0.97022516  0.86787004  0.07680610     0.14900
N3846       N  0.96297234  0.82115690  0.11484323     0.74000
O3847       O  0.50464992  0.94867476  0.16157002    -0.39400
O3848       O  0.54898576  0.93682275  0.14343209    -0.39300
O3849       O  0.93895518  0.81676508  0.12998699    -0.40100
O3850       O  0.97488586  0.79911226  0.10071154    -0.40100
C3851       C  0.51683916  0.62827387  0.09630163    -0.12400
C3852       C  0.50111073  0.60119993  0.10273599     0.04600
C3853       C  0.98941148  0.59537639  0.13396691    -0.07700
C3854       C  0.99089976  0.61934359  0.15494811    -0.08400
C3855       C  0.50466878  0.64833370  0.14663166    -0.03000
C3856       C  0.51861294  0.65183385  0.11773895     0.03800
N3857       N  0.53590088  0.67832245  0.11009606     0.66300
H3858       H  0.52833666  0.63099947  0.07460689     0.15200
H3859       H  0.98233446  0.61541293  0.17786460     0.14900
N3860       N  0.97590966  0.56731881  0.14366689     0.74000
O3861       O  0.56399562  0.67825362  0.11559627    -0.39400
O3862       O  0.52568387  0.69646574  0.09013066    -0.39300
O3863       O  0.99100847  0.54960799  0.16064475    -0.40100
O3864       O  0.94736080  0.56513057  0.14351395    -0.40100
O3865       O  0.50095352  0.54685246  0.58949182    -0.75900
O3866       O  0.49845113  0.55022380  0.91422026    -0.81800
O3867       O  0.54990881  0.58715006  0.49887589    -0.78800
O3868       O  0.95072863  0.58883688  0.50259729    -0.77200
O3869       O  0.91425060  0.55182100  0.50013648    -0.79000
O3870       O  0.58607374  0.54985672  0.49867308    -0.79900
O3871       O  0.49861740  0.58741612  0.95077372    -0.81300
O3872       O  0.50305239  0.58393261  0.55271033    -0.81600
Eu3873     Eu  0.50088007  0.56114292  0.50151361     2.39200
O3874       O  0.96933339  0.53085058  0.96932690    -0.89100
O3875       O  0.53160669  0.52984660  0.53247299    -0.92700
C3876       C  0.50236346  0.57496564  0.58086906     1.02000
C3877       C  0.49831334  0.57847453  0.92274184     1.01800
C3878       C  0.57772954  0.57818816  0.49787345     1.01800
C3879       C  0.92288131  0.57996599  0.50172815     0.99600
H3880       H  0.54291327  0.54371119  0.95608667     0.29400
O3881       O  0.53048556  0.53084348  0.96881235    -1.01500
H3882       H  0.95587231  0.54369792  0.54451580     0.29400
O3883       O  0.96854123  0.53131418  0.53160846    -1.04000
O3884       O  0.50128526  0.94946441  0.91278132    -0.81200
O3885       O  0.49953910  0.95014631  0.58851243    -0.80800
O3886       O  0.58675784  0.50088773  0.95012726    -0.79200
O3887       O  0.91273862  0.50154365  0.95057155    -0.82500
O3888       O  0.91352146  0.49917748  0.54972917    -0.80400
O3889       O  0.58544891  0.49990909  0.55202526    -0.79000
O3890       O  0.54965203  0.91229252  0.50112911    -0.80600
O3891       O  0.94916522  0.91365333  0.50146559    -0.82500
O3892       O  0.58655727  0.94905539  0.50199085    -0.79200
O3893       O  0.91240285  0.95048009  0.50181576    -0.81900
O3894       O  0.55012159  0.50036896  0.91319427    -0.77600
O3895       O  0.54893599  0.49898406  0.58911652    -0.77700
O3896       O  0.94956418  0.49744044  0.58724663    -0.77300
O3897       O  0.94939634  0.50060857  0.91358613    -0.80800
O3898       O  0.50153757  0.91294466  0.95029896    -0.80200
O3899       O  0.49787115  0.91290522  0.55199566    -0.78600
Eu3900     Eu  0.49965811  0.49934917  0.93816338     2.39800
Eu3901     Eu  0.50031484  0.49805682  0.56256954     2.39600
Eu3902     Eu  0.56192797  0.49914250  0.50089561     2.38400
Eu3903     Eu  0.93833820  0.50111855  0.49939396     2.39900
Eu3904     Eu  0.49932393  0.93735744  0.50113781     2.39800
O3905       O  0.96955812  0.96859698  0.53174599    -0.93000
O3906       O  0.53123978  0.96972829  0.96964735    -0.91900
C3907       C  0.50168886  0.92138954  0.92193169     1.02200
C3908       C  0.49842149  0.92196079  0.58009296     1.00900
C3909       C  0.57819239  0.50096895  0.92194794     1.00300
C3910       C  0.92132420  0.50153517  0.92233591     1.02300
C3911       C  0.92178532  0.49772058  0.57803125     1.01200
C3912       C  0.57678603  0.49992467  0.58030135     1.00100
C3913       C  0.57774220  0.92091297  0.50170038     1.00100
C3914       C  0.92102164  0.92235768  0.50193376     1.02800
H3915       H  0.54303609  0.95563643  0.54481997     0.30100
O3916       O  0.53050275  0.96828427  0.53190505    -1.05100
H3917       H  0.95645291  0.95521699  0.95744965     0.32200
O3918       O  0.96901960  0.96810744  0.96982863    -1.07700
O3919       O  0.50352891  0.70020209  0.66130312    -0.80300
O3920       O  0.50099591  0.69682738  0.83443220    -0.81800
O3921       O  0.54944792  0.66214577  0.74612181    -0.78800
O3922       O  0.94985594  0.66251180  0.74690725    -0.77200
O3923       O  0.91341864  0.69975182  0.74864167    -0.79000
O3924       O  0.58531441  0.69973289  0.74625936    -0.79900
O3925       O  0.50185881  0.66012741  0.79748587    -0.81300
O3926       O  0.50256184  0.66368099  0.69865594    -0.81600
Eu3927     Eu  0.50020198  0.68776396  0.74878670     2.39200
O3928       O  0.96838564  0.71851631  0.78070390    -0.89100
O3929       O  0.53129131  0.71928262  0.71868255    -0.92700
C3930       C  0.50394948  0.67212086  0.67043952     1.02000
C3931       C  0.50181587  0.66870699  0.82561925     1.01800
C3932       C  0.57716321  0.67138985  0.74520938     1.01800
C3933       C  0.92196580  0.67150799  0.74730408     0.99600
H3934       H  0.54391214  0.70520563  0.79244523     0.29400
O3935       O  0.53102845  0.71824013  0.78016580    -1.01500
H3936       H  0.95657806  0.70681082  0.70518991     0.29400
O3937       O  0.96894934  0.71935283  0.71829958    -1.04000
O3938       O  0.49912463  0.79653695  0.83969095    -0.81200
O3939       O  0.49800973  0.80011653  0.66343276    -0.80800
O3940       O  0.58614584  0.74878562  0.80022221    -0.79200
O3941       O  0.91261664  0.74964619  0.79979094    -0.82500
O3942       O  0.91445091  0.75081896  0.69865355    -0.80400
O3943       O  0.58784255  0.75078252  0.70063410    -0.79000
O3944       O  0.54853268  0.83877094  0.74984787    -0.80600
O3945       O  0.95110336  0.83866575  0.74830661    -0.82500
O3946       O  0.58503939  0.80173857  0.74970718    -0.79200
O3947       O  0.91481954  0.80147173  0.74752870    -0.81900
O3948       O  0.54967507  0.74676016  0.83748210    -0.77600
O3949       O  0.55145695  0.75077555  0.66349149    -0.77700
O3950       O  0.95127782  0.75022630  0.66179945    -0.77300
O3951       O  0.94925849  0.74841121  0.83672071    -0.80800
O3952       O  0.49942366  0.83376722  0.80292802    -0.80200
O3953       O  0.49711529  0.83636252  0.70100531    -0.78600
Eu3954     Eu  0.49984867  0.74813024  0.81177044     2.39800
Eu3955     Eu  0.50075739  0.74994285  0.68752725     2.39600
Eu3956     Eu  0.56150541  0.75041389  0.74988822     2.38400
Eu3957     Eu  0.93818814  0.75023356  0.74959581     2.39900
Eu3958     Eu  0.49993871  0.81155617  0.75104773     2.39800
O3959       O  0.96971012  0.78122225  0.71943260    -0.93000
O3960       O  0.53083466  0.78042864  0.78187530    -0.91900
C3961       C  0.49908185  0.82474339  0.83115185     1.02200
C3962       C  0.49650538  0.82792827  0.67279554     1.00900
C3963       C  0.57761367  0.74736668  0.82847617     1.00300
C3964       C  0.92127903  0.74888456  0.82800117     1.02300
C3965       C  0.92324719  0.75059539  0.67042325     1.01200
C3966       C  0.57943418  0.75081863  0.67243729     1.00100
C3967       C  0.57647733  0.83005826  0.74957946     1.00100
C3968       C  0.92326576  0.82978841  0.74709123     1.02800
H3969       H  0.54323809  0.79452274  0.70627184     0.30100
O3970       O  0.53077718  0.78147299  0.71892728    -1.05100
H3971       H  0.95584730  0.79340012  0.79414007     0.32200
O3972       O  0.96859786  0.78079671  0.78144507    -1.07700
O3973       O  0.83559164  0.00137729  0.69890026    -0.80300
O3974       O  0.66511129  0.99974020  0.69731133    -0.81800
O3975       O  0.75067903  0.94867657  0.66427594    -0.78800
O3976       O  0.74771339  0.54929787  0.66168778    -0.77200
O3977       O  0.74916263  0.58594252  0.69880251    -0.79000
O3978       O  0.74979465  0.91169260  0.70107811    -0.79900
O3979       O  0.70168964  0.99886641  0.66035553    -0.81300
O3980       O  0.79957207  0.00099343  0.66145619    -0.81600
Eu3981     Eu  0.75033225  0.99975989  0.68733441     2.39200
O3982       O  0.71976474  0.53194141  0.71874015    -0.89100
O3983       O  0.78106175  0.96891943  0.71871930    -0.92700
C3984       C  0.82735312  0.00150687  0.67054020     1.02000
C3985       C  0.67376543  0.99909557  0.66907795     1.01800
C3986       C  0.75015286  0.92043093  0.67291350     1.01800
C3987       C  0.74798636  0.57728229  0.67062027     0.99600
H3988       H  0.70664187  0.95597253  0.70562043     0.29400
O3989       O  0.71914625  0.96889864  0.71819158    -1.01500
H3990       H  0.79330546  0.54433660  0.70529586     0.29400
O3991       O  0.78073084  0.53157352  0.71821400    -1.04000
O3992       O  0.66088087  0.99818707  0.79668401    -0.81200
O3993       O  0.83703305  0.00199763  0.79945789    -0.80800
O3994       O  0.70095686  0.91208098  0.75138310    -0.79200
O3995       O  0.70201714  0.58997681  0.74879098    -0.82500
O3996       O  0.79965472  0.58855132  0.75139228    -0.80400
O3997       O  0.79878222  0.91194096  0.74993906    -0.79000
O3998       O  0.74795217  0.95244108  0.83866763    -0.80600
O3999       O  0.75234257  0.55102725  0.83789258    -0.82500
O4000       O  0.74816470  0.91580486  0.80158957    -0.79200
O4001       O  0.75110460  0.58770541  0.80057683    -0.81900
O4002       O  0.66468022  0.94933769  0.74977767    -0.77600
O4003       O  0.83520328  0.94899973  0.74904461    -0.77700
O4004       O  0.83600476  0.55122091  0.74968860    -0.77300
O4005       O  0.66548969  0.55308354  0.74826188    -0.80800
O4006       O  0.69766155  0.99782089  0.83339072    -0.80200
O4007       O  0.79985934  0.00221372  0.83600384    -0.78600
Eu4008     Eu  0.68830926  0.00066040  0.74827118     2.39800
Eu4009     Eu  0.81144650  0.00028913  0.74959583     2.39600
Eu4010     Eu  0.74986462  0.93849715  0.75020975     2.38400
Eu4011     Eu  0.75047238  0.56275660  0.74994548     2.39900
Eu4012     Eu  0.74923658  0.00106114  0.81126730     2.39800
O4013       O  0.78130999  0.53139812  0.78031438    -0.93000
O4014       O  0.71895167  0.97021910  0.77999228    -0.91900
C4015       C  0.66956810  0.99703028  0.82474654     1.02200
C4016       C  0.82806526  0.00257188  0.82755532     1.00900
C4017       C  0.67309260  0.92097800  0.75100443     1.00300
C4018       C  0.67411129  0.58134751  0.74793593     1.02300
C4019       C  0.82748360  0.57951769  0.75096659     1.01200
C4020       C  0.82668082  0.92068190  0.74921789     1.00100
C4021       C  0.74759012  0.92444093  0.82979713     1.00100
C4022       C  0.75217046  0.57912434  0.82888779     1.02800
H4023       H  0.79320570  0.95691963  0.79417625     0.30100
O4024       O  0.78066238  0.96949584  0.78118872    -1.05100
H4025       H  0.70660082  0.54544757  0.79399602     0.32200
O4026       O  0.71916080  0.53259885  0.78133487    -1.07700
O4027       O  0.70030658  0.66242364  0.00085986    -0.80300
O4028       O  0.70047277  0.83683694  0.99588708    -0.81800
O4029       O  0.66245346  0.75093808  0.54868368    -0.78800
O4030       O  0.66435674  0.75059382  0.94760578    -0.77200
O4031       O  0.70141873  0.75220167  0.91097273    -0.79000
O4032       O  0.69908710  0.75205417  0.58561122    -0.79900
O4033       O  0.66320926  0.80051476  0.99537325    -0.81300
O4034       O  0.66402981  0.69958085  0.00003964    -0.81600
Eu4035     Eu  0.68822997  0.75061384  0.99827511     2.39200
O4036       O  0.71995440  0.78142524  0.96774785    -0.89100
O4037       O  0.71915696  0.71855343  0.53136793    -0.92700
C4038       C  0.67245677  0.67122414  0.00081273     1.02000
C4039       C  0.67228244  0.82849033  0.99486872     1.01800
C4040       C  0.67107160  0.75215446  0.57682556     1.01800
C4041       C  0.67331584  0.75158822  0.91949476     0.99600
H4042       H  0.70591773  0.79378419  0.54168085     0.29400
O4043       O  0.71883695  0.78073061  0.52940404    -1.01500
H4044       H  0.70645774  0.70658977  0.95513315     0.29400
O4045       O  0.71913348  0.71925982  0.96797396    -1.04000
O4046       O  0.80282245  0.83441998  0.99936724    -0.81200
O4047       O  0.79739649  0.66038920  0.00097016    -0.80800
O4048       O  0.74973259  0.80231862  0.58386154    -0.79200
O4049       O  0.75248747  0.79959070  0.91088797    -0.82500
O4050       O  0.75024488  0.70099850  0.91248187    -0.80400
O4051       O  0.75059169  0.70167304  0.58857938    -0.79000
O4052       O  0.83530889  0.75183025  0.55124113    -0.80600
O4053       O  0.83870362  0.74570087  0.95228978    -0.82500
O4054       O  0.79876876  0.75332231  0.58828209    -0.79200
O4055       O  0.80228801  0.74723248  0.91518928    -0.81900
O4056       O  0.74937925  0.83907130  0.54674843    -0.77600
O4057       O  0.75061843  0.66449053  0.55196403    -0.77700
O4058       O  0.74936721  0.66413010  0.94964732    -0.77300
O4059       O  0.75198756  0.83629469  0.94790492    -0.80800
O4060       O  0.83907515  0.79704291  0.00033001    -0.80200
O4061       O  0.83406808  0.69705242  0.00179727    -0.78600
Eu4062     Eu  0.75107193  0.81218652  0.99834031     2.39800
Eu4063     Eu  0.74915739  0.68841754  0.00023970     2.39600
Eu4064     Eu  0.74964529  0.75086792  0.56154889     2.38400
Eu4065     Eu  0.75096109  0.75025490  0.93754400     2.39900
Eu4066     Eu  0.81146707  0.74858036  0.00091734     2.39800
O4067       O  0.78069218  0.71859915  0.96923821    -0.93000
O4068       O  0.78037679  0.78125057  0.52992663    -0.91900
C4069       C  0.83082153  0.82528384  0.00000243     1.02200
C4070       C  0.82538961  0.66883996  0.00162966     1.00900
C4071       C  0.74959603  0.83052118  0.57499538     1.00300
C4072       C  0.75233683  0.82764750  0.91975125     1.02300
C4073       C  0.74956058  0.67302442  0.92145792     1.01200
C4074       C  0.75072854  0.67350640  0.58004255     1.00100
C4075       C  0.82675159  0.75316342  0.57950906     1.00100
C4076       C  0.83023917  0.74570492  0.92411927     1.02800
H4077       H  0.79386573  0.70646509  0.54496338     0.30100
O4078       O  0.78105600  0.71890159  0.53183946    -1.05100
H4079       H  0.79557114  0.79272607  0.95580002     0.32200
O4080       O  0.78217615  0.78036023  0.96865368    -1.07700
C4081       C  0.76184256  0.62939023  0.65424352    -0.12400
C4082       C  0.74797980  0.60151257  0.64710862     0.04600
C4083       C  0.73503246  0.59768041  0.61783886    -0.07700
C4084       C  0.73638384  0.62150527  0.59662509    -0.08400
C4085       C  0.75024502  0.64941565  0.60376501    -0.03000
C4086       C  0.76308637  0.65323545  0.63307468     0.03800
N4087       N  0.77831393  0.68062385  0.64173846     0.66300
H4088       H  0.77231192  0.63269968  0.67639747     0.15200
H4089       H  0.72598037  0.61821867  0.57446089     0.14900
N4090       N  0.71944599  0.57039256  0.60939035     0.74000
O4091       O  0.76425718  0.69958134  0.65818450    -0.39400
O4092       O  0.80694848  0.68076557  0.64198603    -0.39300
O4093       O  0.69082938  0.57012923  0.61044741    -0.40100
O4094       O  0.73286131  0.55142501  0.59242074    -0.40100
C4095       C  0.74729646  0.84449858  0.62996680    -0.12400
C4096       C  0.74958697  0.85421127  0.59941038     0.04600
C4097       C  0.75173359  0.88597170  0.59355116    -0.07700
C4098       C  0.75193936  0.90663543  0.61782442    -0.08400
C4099       C  0.74983258  0.89688355  0.64838471    -0.03000
C4100       C  0.74730534  0.86517270  0.65419122     0.03800
N4101       N  0.74398051  0.85308624  0.68430171     0.66300
H4102       H  0.74523725  0.82043853  0.63546910     0.15200
H4103       H  0.75390831  0.93071052  0.61236589     0.14900
N4104       N  0.75420276  0.89812602  0.56334069     0.74000
O4105       O  0.71767018  0.84628578  0.69338728    -0.39400
O4106       O  0.76639777  0.83977435  0.69631331    -0.39300
O4107       O  0.73170619  0.91209764  0.55219620    -0.40100
O4108       O  0.78030302  0.90397593  0.55302639    -0.40100
C4109       C  0.76127748  0.87217367  0.84563646    -0.12400
C4110       C  0.74777566  0.90008833  0.85325959     0.04600
C4111       C  0.73549966  0.90375410  0.88285663    -0.07700
C4112       C  0.73733321  0.87976674  0.90390056    -0.08400
C4113       C  0.75148158  0.85203006  0.89636736    -0.03000
C4114       C  0.76370242  0.84842618  0.86677556     0.03800
N4115       N  0.78032740  0.82180826  0.85814415     0.66300
H4116       H  0.77057300  0.86891390  0.82308141     0.15200
H4117       H  0.72717183  0.88284560  0.92626531     0.14900
N4118       N  0.71977429  0.93086298  0.89169903     0.74000
O4119       O  0.76869797  0.80371285  0.83908270    -0.39400
O4120       O  0.80877668  0.82201645  0.86128828    -0.39300
O4121       O  0.69114181  0.93068779  0.89159401    -0.40100
O4122       O  0.73335035  0.95001179  0.90825417    -0.40100
C4123       C  0.73651430  0.63075080  0.84710013    -0.12400
C4124       C  0.75227905  0.60331588  0.85263987     0.04600
C4125       C  0.76714966  0.59956439  0.88105475    -0.07700
C4126       C  0.76541679  0.62242338  0.90307166    -0.08400
C4127       C  0.74947810  0.64938222  0.89766989    -0.03000
C4128       C  0.73490264  0.65368617  0.86933966     0.03800
N4129       N  0.71776354  0.68081430  0.86329215     0.66300
H4130       H  0.72489403  0.63408739  0.82565855     0.15200
H4131       H  0.77741560  0.61942431  0.92435936     0.14900
N4132       N  0.78587032  0.57379533  0.88756018     0.74000
O4133       O  0.73031047  0.70280072  0.84950297    -0.39400
O4134       O  0.69335294  0.68543691  0.87769205    -0.39300
O4135       O  0.81423933  0.57715776  0.88558635    -0.40100
O4136       O  0.77559068  0.55334683  0.90512272    -0.40100
C4137       C  0.87166391  0.65308584  0.76472422    -0.12400
C4138       C  0.89788321  0.64788522  0.74729979     0.04600
C4139       C  0.90055195  0.62009467  0.73112270    -0.07700
C4140       C  0.87761370  0.59811396  0.73328894    -0.08400
C4141       C  0.85145019  0.60325453  0.75079480    -0.03000
C4142       C  0.84853378  0.63128205  0.76658047     0.03800
N4143       N  0.82296403  0.63774123  0.78561197     0.66300
H4144       H  0.86927242  0.67409598  0.77755822     0.15200
H4145       H  0.87992014  0.57717937  0.72031875     0.14900
N4146       N  0.92525157  0.61441546  0.71076649     0.74000
O4147       O  0.82534514  0.63347134  0.81405506    -0.39400
O4148       O  0.80302067  0.65605779  0.77592401    -0.39300
O4149       O  0.94510954  0.59510225  0.71847098    -0.40100
O4150       O  0.92177320  0.62044666  0.68275269    -0.40100
C4151       C  0.88015480  0.90540028  0.73879000    -0.12400
C4152       C  0.85082922  0.89681017  0.74800959     0.04600
C4153       C  0.84565899  0.86571555  0.75544571    -0.07700
C4154       C  0.86943770  0.84466890  0.75412857    -0.08400
C4155       C  0.89893292  0.85341036  0.74598099    -0.03000
C4156       C  0.90404721  0.88430553  0.73774649     0.03800
N4157       N  0.93295951  0.89486905  0.72746313     0.66300
H4158       H  0.88479009  0.92880998  0.73216590     0.15200
H4159       H  0.86466383  0.82121531  0.76041759     0.14900
N4160       N  0.81713428  0.85494260  0.76641848     0.74000
O4161       O  0.93704902  0.89876249  0.69915525    -0.39400
O4162       O  0.94960058  0.90915804  0.74598495    -0.39300
O4163       O  0.80112506  0.83884706  0.74887407    -0.40100
O4164       O  0.81412362  0.85140498  0.79485756    -0.40100
C4165       C  0.62049763  0.59613355  0.73813825    -0.12400
C4166       C  0.65001570  0.60518040  0.74612489     0.04600
C4167       C  0.65534081  0.63658314  0.75179309    -0.07700
C4168       C  0.63130541  0.65732885  0.75096033    -0.08400
C4169       C  0.60169619  0.64813975  0.74383957    -0.03000
C4170       C  0.59658824  0.61709586  0.73653252     0.03800
N4171       N  0.56781166  0.60636306  0.72612090     0.66300
H4172       H  0.61580113  0.57252723  0.73249844     0.15200
H4173       H  0.63610058  0.68097570  0.75636077     0.14900
N4174       N  0.68466963  0.64828031  0.75899504     0.74000
O4175       O  0.56264325  0.60623211  0.69775251    -0.39400
O4176       O  0.55265083  0.58881574  0.74321891    -0.39300
O4177       O  0.69941994  0.66168840  0.73816615    -0.40100
O4178       O  0.69015611  0.65504277  0.78642757    -0.40100
C4179       C  0.63009545  0.84524728  0.75859497    -0.12400
C4180       C  0.60069924  0.85386101  0.74973744     0.04600
C4181       C  0.59559811  0.88483507  0.74172968    -0.07700
C4182       C  0.61947305  0.90582408  0.74244610    -0.08400
C4183       C  0.64883472  0.89723865  0.75129965    -0.03000
C4184       C  0.65392141  0.86632907  0.75967093     0.03800
N4185       N  0.68258446  0.85578487  0.77066279     0.66300
H4186       H  0.63474474  0.82189165  0.76543038     0.15200
H4187       H  0.61480673  0.92915894  0.73554073     0.14900
N4188       N  0.56693045  0.89557599  0.73115552     0.74000
O4189       O  0.68622042  0.85309589  0.79914907    -0.39400
O4190       O  0.69894690  0.83994384  0.75313069    -0.39300
O4191       O  0.54990829  0.90944217  0.74973780    -0.40100
O4192       O  0.56440260  0.90147088  0.70305616    -0.40100
C4193       C  0.87053286  0.76315317  0.65444165    -0.12400
C4194       C  0.89915825  0.75139728  0.64657698     0.04600
C4195       C  0.90361715  0.74066841  0.61641759    -0.07700
C4196       C  0.87990678  0.74219333  0.59520528    -0.08400
C4197       C  0.85112261  0.75355257  0.60315626    -0.03000
C4198       C  0.84663156  0.76413332  0.63339801     0.03800
N4199       N  0.81821488  0.77619486  0.64346343     0.66300
H4200       H  0.86646625  0.77174957  0.67729443     0.15200
H4201       H  0.88397572  0.73339287  0.57243308     0.14900
N4202       N  0.93125394  0.72634515  0.60713188     0.74000
O4203       O  0.80041645  0.75882074  0.65794095    -0.39400
O4204       O  0.81571504  0.80468733  0.64694661    -0.39300
O4205       O  0.93190095  0.69760925  0.60506319    -0.40100
O4206       O  0.95026412  0.74176286  0.59203522    -0.40100
C4207       C  0.59598991  0.76262295  0.61932101    -0.12400
C4208       C  0.60340888  0.75147630  0.64850521     0.04600
C4209       C  0.63354189  0.74159614  0.65394757    -0.07700
C4210       C  0.65491869  0.74237153  0.63033332    -0.08400
C4211       C  0.64739316  0.75304829  0.60103223    -0.03000
C4212       C  0.61753168  0.76379770  0.59580830     0.03800
N4213       N  0.60874454  0.77716887  0.56732490     0.66300
H4214       H  0.57332401  0.77107498  0.61470426     0.15200
H4215       H  0.67760619  0.73401928  0.63502759     0.14900
N4216       N  0.64300331  0.72996800  0.68296486     0.74000
O4217       O  0.59327993  0.76146199  0.54892527    -0.39400
O4218       O  0.60802104  0.80590865  0.56508145    -0.39300
O4219       O  0.64615780  0.70149118  0.68620265    -0.40100
O4220       O  0.65685931  0.74757855  0.70094148    -0.40100
C4221       C  0.62267017  0.73422616  0.90183894    -0.12400
C4222       C  0.64929426  0.75079958  0.89569615     0.04600
C4223       C  0.65209098  0.76573808  0.86713942    -0.07700
C4224       C  0.62863299  0.76378552  0.84569293    -0.08400
C4225       C  0.60192192  0.74745352  0.85193738    -0.03000
C4226       C  0.59917737  0.73231426  0.88040141     0.03800
N4227       N  0.57350852  0.71369723  0.88756607     0.66300
H4228       H  0.62021287  0.72209889  0.92334875     0.15200
H4229       H  0.63107154  0.77596936  0.82421003     0.14900
N4230       N  0.67757712  0.78457737  0.86001630     0.74000
O4231       O  0.57542958  0.68522959  0.88354667    -0.39400
O4232       O  0.55379349  0.72382169  0.90587141    -0.39300
O4233       O  0.69693839  0.77494918  0.84107250    -0.40100
O4234       O  0.67546297  0.81295916  0.86449517    -0.40100
C4235       C  0.90537145  0.73625466  0.88127577    -0.12400
C4236       C  0.89770987  0.74801113  0.85233999     0.04600
C4237       C  0.86771738  0.75832594  0.84747974    -0.07700
C4238       C  0.84631230  0.75623461  0.87091290    -0.08400
C4239       C  0.85397195  0.74505703  0.89997120    -0.03000
C4240       C  0.88407412  0.73487296  0.90504754     0.03800
N4241       N  0.89349595  0.72231378  0.93370940     0.66300
H4242       H  0.92810028  0.72780421  0.88557862     0.15200
H4243       H  0.82358477  0.76448322  0.86641725     0.14900
N4244       N  0.85886897  0.77312501  0.81977696     0.74000
O4245       O  0.89246751  0.69374324  0.93744097    -0.39400
O4246       O  0.91085861  0.73782554  0.95049950    -0.39300
O4247       O  0.84014362  0.75999322  0.80245063    -0.40100
O4248       O  0.86192651  0.80170865  0.81783172    -0.40100
C4249       C  0.84681400  0.87834635  0.01154035    -0.12400
C4250       C  0.85296361  0.85080545  0.49892101     0.04600
C4251       C  0.88390421  0.84492756  0.49212127    -0.07700
C4252       C  0.90525004  0.86851723  0.49328196    -0.08400
C4253       C  0.89709623  0.89824868  0.50182018    -0.03000
C4254       C  0.86803397  0.90195750  0.01363722     0.03800
N4255       N  0.85811551  0.93041164  0.02606664     0.66300
H4256       H  0.82372864  0.88294580  0.01847931     0.15200
H4257       H  0.92853532  0.86330788  0.48721136     0.14900
N4258       N  0.89440730  0.81546605  0.48317924     0.74000
O4259       O  0.84361435  0.94859474  0.00906491    -0.39400
O4260       O  0.85297636  0.93597786  0.54917972    -0.39300
O4261       O  0.89904489  0.81168943  0.95326212    -0.40100
O4262       O  0.90692389  0.79870763  0.50304043    -0.40100
C4263       C  0.86839320  0.59273356  0.99875143    -0.12400
C4264       C  0.89890693  0.60356694  0.50163026     0.04600
C4265       C  0.90094460  0.63075694  0.51877439    -0.07700
C4266       C  0.87771936  0.65247071  0.51696185    -0.08400
C4267       C  0.85188295  0.64741002  0.49900190    -0.03000
C4268       C  0.84422206  0.61343200  0.99823626     0.03800
N4269       N  0.81461458  0.60148682  0.99278250     0.66300
H4270       H  0.86334488  0.56883348  0.99501554     0.15200
H4271       H  0.87944102  0.67300683  0.53063161     0.14900
N4272       N  0.92502473  0.63576842  0.53997868     0.74000
O4273       O  0.80720820  0.59560753  0.96561118    -0.39400
O4274       O  0.80484344  0.59462564  0.47165635    -0.39300
O4275       O  0.94696401  0.66101793  0.99723741    -0.40100
O4276       O  0.92106887  0.62808137  0.56753040    -0.40100
C4277       C  0.65607724  0.88164097  0.00610682    -0.12400
C4278       C  0.64612251  0.84991297  0.49673839     0.04600
C4279       C  0.61791987  0.84696474  0.48152626    -0.07700
C4280       C  0.59596354  0.87006540  0.48407798    -0.08400
C4281       C  0.60141644  0.89663023  0.50108194    -0.03000
C4282       C  0.63446359  0.90497691  0.00806258     0.03800
N4283       N  0.64313714  0.93266262  0.02273504     0.66300
H4284       H  0.67859921  0.88588870  0.01505246     0.15200
H4285       H  0.57478331  0.86757791  0.47176793     0.14900
N4286       N  0.61176007  0.82190855  0.46164937     0.74000
O4287       O  0.64426078  0.93295660  0.05153893    -0.39400
O4288       O  0.65860273  0.95190806  0.00789653    -0.39300
O4289       O  0.59325090  0.80167765  0.47031228    -0.40100
O4290       O  0.61648348  0.82532815  0.43337861    -0.40100
C4291       C  0.61988200  0.65431040  0.49212515    -0.12400
C4292       C  0.65007624  0.64508678  0.49674838     0.04600
C4293       C  0.65477630  0.61550045  0.00089042    -0.07700
C4294       C  0.63107258  0.59433367  0.00101900    -0.08400
C4295       C  0.60201853  0.60176203  0.49607018    -0.03000
C4296       C  0.59608883  0.63324900  0.49136336     0.03800
N4297       N  0.56637265  0.64455967  0.48484567     0.66300
H4298       H  0.61442263  0.67822635  0.48877831     0.15200
H4299       H  0.63691327  0.57029785  0.00035440     0.14900
N4300       N  0.68502767  0.60383641  0.99951418     0.74000
O4301       O  0.55205905  0.65844482  0.50559449    -0.39400
O4302       O  0.55263848  0.65650111  0.97819881    -0.39300
O4303       O  0.69472647  0.59116205  0.52782129    -0.40100
O4304       O  0.69576832  0.59645244  0.97381898    -0.40100
C4305       C  0.84454562  0.98977880  0.88056471    -0.12400
C4306       C  0.85367312  0.50052417  0.85027087     0.04600
C4307       C  0.88385668  0.49069374  0.84498109    -0.07700
C4308       C  0.90521332  0.49156810  0.86866150    -0.08400
C4309       C  0.89755557  0.50199636  0.89802583    -0.03000
C4310       C  0.86610789  0.98781205  0.90404535     0.03800
N4311       N  0.85719388  0.97347810  0.93202271     0.66300
H4312       H  0.82209067  0.98054543  0.88467199     0.15200
H4313       H  0.92793620  0.48329339  0.86402130     0.14900
N4314       N  0.89312281  0.47813485  0.81635017     0.74000
O4315       O  0.85912048  0.55241831  0.93597784    -0.39400
O4316       O  0.85541374  0.94471916  0.93289773    -0.39300
O4317       O  0.91004691  0.49379993  0.79909740    -0.40100
O4318       O  0.90594603  0.01466566  0.80056915    -0.40100
C4319       C  0.59509219  0.49088425  0.86851939    -0.12400
C4320       C  0.60221198  0.50139226  0.89789645     0.04600
C4321       C  0.63400838  0.00323177  0.90311911    -0.07700
C4322       C  0.65489764  0.00200237  0.87916262    -0.08400
C4323       C  0.64698412  0.49959078  0.85101160    -0.03000
C4324       C  0.61701197  0.48934984  0.84537298     0.03800
N4325       N  0.60852749  0.47585918  0.81693604     0.66300
H4326       H  0.57239169  0.48305166  0.86353513     0.15200
H4327       H  0.67841345  0.00702565  0.88431200     0.14900
N4328       N  0.64524480  0.01203002  0.93232683     0.74000
O4329       O  0.59930293  0.95378424  0.80796535    -0.39400
O4330       O  0.59159022  0.49071266  0.79900695    -0.39300
O4331       O  0.65920184  0.99236957  0.94810254    -0.40100
O4332       O  0.64298567  0.55179161  0.93580551    -0.40100
C4333       C  0.62007003  0.00712970  0.65457243    -0.12400
C4334       C  0.64819209  0.49980385  0.64773510     0.04600
C4335       C  0.65306272  0.48855745  0.61785425    -0.07700
C4336       C  0.62960772  0.48952027  0.59647744    -0.08400
C4337       C  0.60073046  0.50053097  0.60407810    -0.03000
C4338       C  0.59612755  0.00815152  0.63380729     0.03800
N4339       N  0.56731763  0.01804183  0.64484562     0.66300
H4340       H  0.61534439  0.01322787  0.67809603     0.15200
H4341       H  0.63412349  0.48142801  0.57362338     0.14900
N4342       N  0.68124793  0.47520253  0.60877967     0.74000
O4343       O  0.55101272  0.99911060  0.65908666    -0.39400
O4344       O  0.56476355  0.55397747  0.64025305    -0.39300
O4345       O  0.68854924  0.95432317  0.59971505    -0.40100
O4346       O  0.69828373  0.48990074  0.59080985    -0.40100
C4347       C  0.87016172  0.51266318  0.59488215    -0.12400
C4348       C  0.89743392  0.49744033  0.60142227     0.04600
C4349       C  0.90551579  0.99329698  0.63579253    -0.07700
C4350       C  0.88150531  0.99483421  0.65657530    -0.08400
C4351       C  0.85025229  0.50035001  0.64541537    -0.03000
C4352       C  0.84668977  0.51427341  0.61638048     0.03800
N4353       N  0.82014274  0.53132634  0.60854782     0.66300
H4354       H  0.86718171  0.52408742  0.57306074     0.15200
H4355       H  0.88632948  0.99008447  0.68041098     0.14900
N4356       N  0.93476620  0.98532910  0.64748243     0.74000
O4357       O  0.82084427  0.56003357  0.61094402    -0.39400
O4358       O  0.80146026  0.99662661  0.59105816    -0.39300
O4359       O  0.94540012  0.47595257  0.65736254    -0.40100
O4360       O  0.94053534  0.95751275  0.65234311    -0.40100
C4361       C  0.00707925  0.59500582  0.87054096    -0.12400
C4362       C  0.49883496  0.60198181  0.89829548     0.04600
C4363       C  0.48927857  0.63247469  0.90287672    -0.07700
C4364       C  0.49072544  0.65339601  0.87884036    -0.08400
C4365       C  0.50178200  0.64509158  0.84995024    -0.03000
C4366       C  0.00820226  0.61587244  0.84640837     0.03800
N4367       N  0.02061974  0.60574003  0.81804018     0.66300
H4368       H  0.01574754  0.57217574  0.86660934     0.15200
H4369       H  0.48257650  0.67639473  0.88293478     0.14900
N4370       N  0.47713864  0.64278790  0.93129967     0.74000
O4371       O  0.04909638  0.60483388  0.81514023    -0.39400
O4372       O  0.00459679  0.58879256  0.80129382    -0.39300
O4373       O  0.49328088  0.65994926  0.94770215    -0.40100
O4374       O  0.44868704  0.64377627  0.93439111    -0.40100
C4375       C  0.51123623  0.87750870  0.84722682    -0.12400
C4376       C  0.49938367  0.84881419  0.85503751     0.04600
C4377       C  0.99410468  0.84403499  0.88572674    -0.07700
C4378       C  0.99466275  0.86788982  0.90683523    -0.08400
C4379       C  0.50157702  0.89685776  0.89847718    -0.03000
C4380       C  0.51224155  0.90137734  0.86829391     0.03800
N4381       N  0.52539252  0.92953876  0.85861729     0.66300
H4382       H  0.52018700  0.88157932  0.82447818     0.15200
H4383       H  0.98930676  0.86267091  0.93047037     0.14900
N4384       N  0.98663791  0.81425125  0.89679187     0.74000
O4385       O  0.55392338  0.93137938  0.85751199    -0.39400
O4386       O  0.50977557  0.94736348  0.84223456    -0.39300
O4387       O  0.00613835  0.79991001  0.91232870    -0.40100
O4388       O  0.95902391  0.80724444  0.89975204    -0.40100
C4389       C  0.51029240  0.87926828  0.65491920    -0.12400
C4390       C  0.49492200  0.85212968  0.64949659     0.04600
C4391       C  0.97831924  0.85058270  0.62400161    -0.07700
C4392       C  0.97912403  0.87334758  0.60140640    -0.08400
C4393       C  0.49736528  0.89823325  0.60432101    -0.03000
C4394       C  0.51209953  0.90204212  0.63274953     0.03800
N4395       N  0.52970506  0.92839778  0.63963230     0.66300
H4396       H  0.52154616  0.88251608  0.67647660     0.15200
H4397       H  0.96337838  0.87220699  0.58243304     0.14900
N4398       N  0.95772354  0.82559481  0.62104701     0.74000
O4399       O  0.51875741  0.94739323  0.65824091    -0.39400
O4400       O  0.55815909  0.92683387  0.63664111    -0.39300
O4401       O  0.93616490  0.82276351  0.63986661    -0.40100
O4402       O  0.96556404  0.80292849  0.60516177    -0.40100
C4403       C  0.51669046  0.62719039  0.59698098    -0.12400
C4404       C  0.50356476  0.59895825  0.60461371     0.04600
C4405       C  0.99337295  0.59523399  0.63490195    -0.07700
C4406       C  0.99496376  0.61902900  0.65598439    -0.08400
C4407       C  0.50523391  0.64733092  0.64742131    -0.03000
C4408       C  0.51768230  0.65121121  0.61792020     0.03800
N4409       N  0.53304166  0.67856711  0.60919259     0.66300
H4410       H  0.52665528  0.63068830  0.57457132     0.15200
H4411       H  0.98858956  0.61422095  0.67941659     0.14900
N4412       N  0.98232433  0.56637458  0.64536466     0.74000
O4413       O  0.56141120  0.67994900  0.61279691    -0.39400
O4414       O  0.52064511  0.69611213  0.58996884    -0.39300
O4415       O  0.99908125  0.55030131  0.66236099    -0.40100
O4416       O  0.95403694  0.56204139  0.64609172    -0.40100
loop_ 
_geom_bond_atom_site_label_1 
_geom_bond_atom_site_label_2 
_geom_bond_distance 
_geom_bond_site_symmetry_2 
_ccdc_geom_bond_type 
O1           C12   1.289       .  A
O1          Eu37   2.448   1_655  S
O2           C13   1.292       .  A
O2          Eu36   2.456   1_645  S
O3           C14   1.290       .  A
O3           Eu9   2.457   1_455  S
O4           C15   1.288       .  A
O4        Eu2217   2.445   1_554  S
O5           C15   1.292       .  A
O5          Eu39   2.453   1_545  S
O6           C14   1.292       .  A
O6          Eu38   2.455   1_556  S
O7           C13   1.289       .  A
O7         Eu561   2.448       .  S
O8           C12   1.292       .  A
O8           Eu9   2.455   1_554  S
Eu9        O2212   2.448   1_556  S
Eu9         O559   2.451       .  S
Eu9          O11   2.354   1_656  S
Eu9        O2227   2.349   1_556  S
Eu9        O2770   2.355       .  S
Eu9         O569   2.351   1_655  S
O10       Eu2769   2.351       .  S
O10        Eu591   2.348       .  S
O10       Eu2244   2.353   1_545  S
O11         Eu37   2.353       .  S
O11         Eu38   2.348       .  S
C12         C540   1.481       .  S
C13         C498   1.478       .  S
C14         C431   1.489       .  S
C15         C400   1.484       .  S
H16          O17   0.962       .  S
O17         Eu36   2.356   1_545  S
O17        Eu561   2.356   1_455  S
O17        Eu590   2.355       .  S
H18          O19   0.962       .  S
O19         Eu39   2.347   1_545  S
O19       Eu2217   2.354   1_554  S
O19       Eu2245   2.349   1_545  S
O20          C43   1.292       .  A
O20       Eu1140   2.464       .  S
O21          C44   1.291       .  A
O21       Eu1141   2.460       .  S
O22          C45   1.288       .  A
O22        Eu590   2.444   1_565  S
O23          C46   1.287       .  A
O23        Eu591   2.441   1_565  S
O24          C47   1.293       .  A
O24         Eu39   2.462       .  S
O25          C48   1.293       .  A
O25         Eu38   2.463       .  S
O26          C49   1.297       .  A
O26         Eu40   2.481   1_556  S
O27          C50   1.297       .  A
O27       Eu2248   2.481       .  S
O28          C49   1.290       .  A
O28       Eu1142   2.458       .  S
O29          C50   1.289       .  A
O29       Eu1143   2.451       .  S
O30          C45   1.298       .  A
O30         Eu36   2.486       .  S
O31          C48   1.289       .  A
O31         Eu37   2.456       .  S
O32          C47   1.288       .  A
O32       Eu2245   2.447       .  S
O33          C46   1.297       .  A
O33       Eu2244   2.480       .  S
O34          C43   1.295       .  A
O34        Eu592   2.477   1_455  S
O35          C44   1.293   1_655  A
O35         Eu40   2.470   1_655  S
Eu36       O1124   2.452       .  S
Eu36       O2241   2.487   1_455  S
Eu36       O2218   2.352   1_465  S
Eu36       O3366   2.357   1_455  S
Eu36       O1146   2.348       .  S
Eu37       O1125   2.452   1_445  S
Eu37       O2240   2.447   1_455  S
Eu37       O2227   2.353   1_455  S
Eu37       O3353   2.351   1_445  S
Eu37       O1156   2.353   1_545  S
Eu38        O574   2.453   1_544  S
Eu38       O1132   2.454   1_545  S
Eu38        O569   2.355   1_554  S
Eu38       O1156   2.352   1_545  S
Eu38       O1698   2.353   1_544  S
Eu39        O575   2.460   1_554  S
Eu39       O1133   2.444       .  S
Eu39        O562   2.353   1_564  S
Eu39       O1145   2.346       .  S
Eu39       O1710   2.358   1_554  S
Eu40       O2235   2.481   1_455  S
Eu40        O586   2.456   1_554  S
Eu40         O52   2.355       .  S
Eu40       O2249   2.345   1_455  S
Eu40       O2814   2.360   1_454  S
Eu40        O594   2.350   1_554  S
O41       Eu3349   2.352       .  S
O41       Eu1143   2.356       .  S
O41       Eu2248   2.348       .  S
O42       Eu1140   2.346       .  S
O42       Eu1694   2.351       .  S
O42        Eu592   2.351   1_455  S
C43         C515   1.484       .  S
C44         C529   1.483   1_455  S
C45         C456   1.495       .  S
C46         C445   1.490       .  S
C47         C484   1.487       .  S
C48         C473   1.492       .  S
C49         C417   1.497       .  S
C50         C389   1.493       .  S
H51          O52   0.964       .  S
O52       Eu1141   2.348       .  S
O52       Eu1142   2.358   1_554  S
H53          O54   0.960       .  S
O54       Eu3348   2.350       .  S
O54       Eu1695   2.355       .  S
O54       Eu2800   2.347       .  S
O55          C66   1.287       .  A
O55         Eu91   2.441       .  S
O56          C67   1.294       .  A
O56         Eu90   2.463       .  S
O57          C68   1.292       .  A
O57         Eu63   2.464   1_455  S
O58          C69   1.290       .  A
O58       Eu2271   2.456       .  S
O59          C69   1.295       .  A
O59         Eu93   2.470       .  S
O60          C68   1.294       .  A
O60         Eu92   2.471       .  S
O61          C67   1.288       .  A
O61         Eu63   2.446       .  S
O62          C66   1.293       .  A
O62         Eu63   2.463   1_455  S
Eu63       O2266   2.471       .  S
Eu63         O65   2.348   1_655  S
Eu63         O71   2.366   1_655  S
Eu63       O2281   2.345       .  S
Eu63       O2272   2.355       .  S
O64         Eu93   2.350       .  S
O64       Eu2271   2.353       .  S
O64       Eu2298   2.348       .  S
O65         Eu91   2.347       .  S
O65         Eu92   2.358       .  S
C66         C543   1.481       .  S
C67         C501   1.481       .  S
C68         C305   1.485       .  S
C69         C274   1.488       .  S
H70          O71   0.967       .  S
O71         Eu92   2.357       .  S
O71         Eu90   2.356   1_455  S
H72          O73   0.965       .  S
O73         Eu93   2.355       .  S
O73       Eu2271   2.345       .  S
O73       Eu2299   2.349       .  S
O74          C97   1.293       .  A
O74         Eu90   2.475   1_455  S
O75          C98   1.286       .  A
O75         Eu91   2.427   1_655  S
O76          C99   1.293       .  A
O76         Eu92   2.459       .  S
O77         C100   1.291       .  A
O77         Eu93   2.461       .  S
O78         C101   1.292       .  A
O78         Eu93   2.451       .  S
O79         C102   1.289       .  A
O79         Eu92   2.448       .  S
O80         C103   1.288       .  A
O80         Eu94   2.447       .  S
O81         C104   1.288       .  A
O81       Eu2302   2.446       .  S
O82         C103   1.298       .  A
O82         Eu92   2.488       .  S
O83         C104   1.296       .  A
O83         Eu93   2.475       .  S
O84          C99   1.291       .  A
O84         Eu90   2.460   1_455  S
O85         C102   1.295       .  A
O85         Eu91   2.472       .  S
O86         C101   1.291       .  A
O86       Eu2299   2.464       .  S
O87         C100   1.295       .  A
O87       Eu2298   2.469       .  S
O88          C97   1.292       .  A
O88         Eu94   2.456       .  S
O89          C98   1.290       .  A
O89         Eu94   2.449   1_655  S
Eu90       O2295   2.458       .  S
Eu90         O96   2.348   1_655  S
Eu90       O2272   2.351       .  S
Eu90       O2316   2.362       .  S
Eu91       O2294   2.481   1_455  S
Eu91        O106   2.358       .  S
Eu91       O2281   2.348   1_455  S
Eu91       O2303   2.351   1_455  S
Eu92        O106   2.356       .  S
Eu92         O96   2.340       .  S
Eu93         O95   2.346       .  S
Eu93        O108   2.355       .  S
Eu94       O2289   2.452   1_455  S
Eu94        O106   2.353       .  S
Eu94         O96   2.349       .  S
Eu94       O2303   2.348   1_455  S
Eu94       O2316   2.355   1_455  S
O95       Eu2299   2.352       .  S
O95       Eu2302   2.352       .  S
C97         C512   1.483       .  S
C98         C526   1.467       .  S
C99         C361   1.490       .  S
C100        C372   1.494       .  S
C101        C330   1.485       .  S
C102        C344   1.489       .  S
C103        C316   1.496       .  S
C104        C291   1.493       .  S
H105        O106   0.965       .  S
H107        O108   0.964       .  S
O108      Eu2298   2.357       .  S
O108      Eu2302   2.351       .  S
O109        C120   1.294       .  A
O109       Eu145   2.465       .  S
O110        C121   1.297       .  A
O110       Eu144   2.479       .  S
O111        C122   1.294       .  A
O111       Eu117   2.470       .  S
O112        C123   1.288       .  A
O112      Eu1221   2.442   1_545  S
O113        C123   1.294       .  A
O113       Eu147   2.467       .  S
O114        C122   1.288       .  A
O114       Eu146   2.450       .  S
O115        C121   1.287       .  A
O115       Eu117   2.438       .  S
O116        C120   1.288       .  A
O116       Eu117   2.450       .  S
Eu117      O1216   2.451       .  S
Eu117       O119   2.352       .  S
Eu117       O125   2.353       .  S
Eu117      O1231   2.360       .  S
Eu117      O1222   2.357       .  S
O118       Eu147   2.358       .  S
O118      Eu1221   2.361   1_545  S
O118      Eu1248   2.342       .  S
O119       Eu145   2.354       .  S
O119       Eu146   2.357       .  S
C120       C1591   1.488       .  S
C121       C1574   1.486       .  S
C122        C235   1.485       .  S
C123        C218   1.475       .  S
H124        O125   0.965       .  S
O125       Eu146   2.353       .  S
O125       Eu144   2.352       .  S
H126        O127   0.968       .  S
O127       Eu147   2.364       .  S
O127      Eu1221   2.360   1_545  S
O127      Eu1249   2.348   1_545  S
O128        C151   1.291       .  A
O128       Eu144   2.457       .  S
O129        C152   1.292       .  A
O129       Eu145   2.463       .  S
O130        C153   1.288       .  A
O130       Eu146   2.448       .  S
O131        C154   1.291       .  A
O131       Eu147   2.461       .  S
O132        C155   1.290       .  A
O132       Eu147   2.457       .  S
O133        C156   1.288       .  A
O133       Eu146   2.445       .  S
O134        C157   1.288       .  A
O134       Eu148   2.445       .  S
O135        C158   1.290       .  A
O135      Eu1252   2.454   1_545  S
O136        C157   1.290       .  A
O136       Eu146   2.449       .  S
O137        C158   1.295       .  A
O137       Eu147   2.476       .  S
O138        C153   1.297       .  A
O138       Eu144   2.478       .  S
O139        C156   1.297       .  A
O139       Eu145   2.479       .  S
O140        C155   1.295       .  A
O140      Eu1249   2.475   1_545  S
O141        C154   1.295       .  A
O141      Eu1248   2.470       .  S
O142        C151   1.295       .  A
O142       Eu148   2.469       .  S
O143        C152   1.297       .  A
O143       Eu148   2.486       .  S
Eu144      O1245   2.483       .  S
Eu144       O150   2.347       .  S
Eu144      O1222   2.344       .  S
Eu144      O1266   2.363       .  S
Eu145      O1244   2.472       .  S
Eu145       O160   2.362       .  S
Eu145      O1231   2.353       .  S
Eu145      O1253   2.351       .  S
Eu146       O160   2.360       .  S
Eu146       O150   2.339       .  S
Eu147       O149   2.344       .  S
Eu147       O162   2.350       .  S
Eu148      O1239   2.450       .  S
Eu148       O160   2.358       .  S
Eu148       O150   2.347       .  S
Eu148      O1253   2.345       .  S
Eu148      O1266   2.360       .  S
O149      Eu1249   2.350   1_545  S
O149      Eu1252   2.346   1_545  S
C151       C1563   1.490       .  S
C152       C1546   1.491       .  S
C153        C319   1.493       .  S
C154        C302   1.484       .  S
C155        C277   1.489       .  S
C156        C288   1.494       .  S
C157        C246   1.473       .  S
C158        C260   1.494       .  S
H159        O160   0.965       .  S
H161        O162   0.964       .  S
O162      Eu1248   2.359       .  S
O162      Eu1252   2.351   1_545  S
O163        C174   1.291       .  A
O163       Eu199   2.464       .  S
O164        C175   1.296       .  A
O164       Eu198   2.479       .  S
O165        C176   1.292       .  A
O165       Eu723   2.464       .  S
O166        C177   1.294       .  A
O166       Eu171   2.463       .  S
O167        C177   1.290       .  A
O167       Eu201   2.455       .  S
O168        C176   1.294       .  A
O168       Eu200   2.466       .  S
O169        C175   1.289       .  A
O169       Eu171   2.451       .  S
O170        C174   1.294       .  A
O170       Eu171   2.465       .  S
Eu171       O717   2.460       .  S
Eu171       O181   2.347       .  S
Eu171       O172   2.353       .  S
Eu171       O725   2.352       .  S
Eu171       O731   2.359       .  S
O172       Eu201   2.350       .  S
O172       Eu198   2.347       .  S
O173       Eu200   2.361       .  S
O173       Eu723   2.349       .  S
O173       Eu751   2.352       .  S
C174        C980   1.490       .  S
C175        C966   1.485       .  S
C176        C347   1.491       .  S
C177        C358   1.488       .  S
H178        O179   0.970       .  S
O179       Eu200   2.349       .  S
O179       Eu723   2.362       .  S
O179       Eu750   2.356   1_554  S
H180        O181   0.969       .  S
O181       Eu199   2.349       .  S
O181       Eu201   2.352       .  S
O182        C205   1.295       .  A
O182       Eu198   2.472       .  S
O183        C206   1.289       .  A
O183       Eu199   2.451       .  S
O184        C207   1.294       .  A
O184       Eu200   2.466       .  S
O185        C208   1.288       .  A
O185       Eu201   2.440       .  S
O186        C209   1.287       .  A
O186       Eu201   2.441       .  S
O187        C210   1.288       .  A
O187       Eu200   2.447       .  S
O188        C211   1.290       .  A
O188       Eu754   2.445       .  S
O189        C212   1.290       .  A
O189       Eu202   2.456       .  S
O190        C211   1.291       .  A
O190       Eu200   2.461       .  S
O191        C212   1.293       .  A
O191       Eu201   2.463       .  S
O192        C207   1.290       .  A
O192       Eu750   2.457   1_554  S
O193        C210   1.292       .  A
O193       Eu751   2.456       .  S
O194        C209   1.290       .  A
O194       Eu199   2.446       .  S
O195        C208   1.293       .  A
O195       Eu198   2.462       .  S
O196        C205   1.290       .  A
O196       Eu202   2.455       .  S
O197        C206   1.295       .  A
O197       Eu202   2.471       .  S
Eu198       O744   2.459       .  S
Eu198       O216   2.353       .  S
Eu198       O731   2.356       .  S
Eu198       O756   2.356       .  S
Eu199       O745   2.449       .  S
Eu199       O203   2.352       .  S
Eu199       O725   2.354       .  S
Eu199       O766   2.354       .  S
Eu200       O214   2.355       .  S
Eu200       O204   2.347       .  S
Eu201       O203   2.345       .  S
Eu201       O216   2.342       .  S
Eu202       O740   2.469       .  S
Eu202       O203   2.349       .  S
Eu202       O216   2.357       .  S
Eu202       O766   2.345       .  S
Eu202       O756   2.355       .  S
O204       Eu750   2.350   1_554  S
O204       Eu754   2.353       .  S
C205        C938   1.487       .  S
C206        C955   1.495       .  S
C207        C232   1.486       .  S
C208        C249   1.475       .  S
C209        C263   1.484       .  S
C210        C221   1.475       .  S
C211        C333   1.484       .  S
C212        C375   1.491       .  S
H213        O214   0.970       .  S
O214       Eu751   2.352       .  S
O214       Eu754   2.346       .  S
H215        O216   0.977       .  S
C217        C218   1.400       .  A
C217        C222   1.395       .  A
C217        H224   1.084       .  S
C218        C219   1.413       .  A
C219        C220   1.395       .  A
C219        N226   1.424       .  S
C220        C221   1.400       .  A
C220        H225   1.085       .  S
C221        C222   1.413       .  A
C222        N223   1.426       .  S
N223        O227   1.261       .  A
N223        O228   1.262       .  A
N226        O230   1.260       .  A
N226        O229   1.262       .  A
C231        C232   1.402       .  A
C231        C236   1.399       .  A
C231        H238   1.084       .  S
C232        C233   1.414       .  A
C233        C234   1.399       .  A
C233        N240   1.426       .  S
C234        C235   1.402       .  A
C234        H239   1.084       .  S
C235        C236   1.415       .  A
C236        N237   1.427       .  S
N237        O241   1.262       .  A
N237        O242   1.261       .  A
N240        O244   1.261       .  A
N240        O243   1.262       .  A
C245        C246   1.399       .  A
C245        C250   1.394       .  A
C245        H252   1.083       .  S
C246        C247   1.412       .  A
C247        C248   1.398       .  A
C247        N254   1.429       .  S
C248        C249   1.403       .  A
C248        H253   1.084       .  S
C249        C250   1.413       .  A
C250        N251   1.428       .  S
N251        O255   1.262       .  A
N251        O256   1.262       .  A
N254        O258   1.262       .  A
N254        O257   1.262       .  A
C259        C260   1.409       .  A
C259        C264   1.401       .  A
C259        H266   1.083       .  S
C260        C261   1.419       .  A
C261        C262   1.397       .  A
C261        N268   1.428       .  S
C262        C263   1.399       .  A
C262        H267   1.081       .  S
C263        C264   1.412       .  A
C264        N265   1.429       .  S
N265        O269   1.262       .  A
N265        O270   1.262       .  A
N268        O272   1.262       .  A
N268        O271   1.262       .  A
C273        C274   1.403       .  A
C273        C278   1.399       .  A
C273        H280   1.084       .  S
C274        C275   1.416       .  A
C275        C276   1.400       .  A
C275        N282   1.427       .  S
C276        C277   1.404       .  A
C276        H281   1.084       .  S
C277        C278   1.416       .  A
C278        N279   1.428       .  S
N279        O283   1.262       .  A
N279        O284   1.262       .  A
N282        O286   1.262       .  A
N282        O285   1.262       .  A
C287        C288   1.404       .  A
C287        C292   1.398       .  A
C287        H294   1.084       .  S
C288        C289   1.420       .  A
C289        C290   1.399       .  A
C289        N296   1.428       .  S
C290        C291   1.404       .  A
C290        H295   1.083       .  S
C291        C292   1.419       .  A
C292        N293   1.428       .  S
N293        O297   1.262       .  A
N293        O298   1.262       .  A
N296        O300   1.262       .  A
N296        O299   1.262       .  A
C301        C302   1.402       .  A
C301        C306   1.398       .  A
C301        H308   1.084       .  S
C302        C303   1.416       .  A
C303        C304   1.402       .  A
C303        N310   1.429       .  S
C304        C305   1.404       .  A
C304        H309   1.084       .  S
C305        C306   1.414       .  A
C306        N307   1.428       .  S
N307        O311   1.262       .  A
N307        O312   1.262       .  A
N310        O314   1.262       .  A
N310        O313   1.262       .  A
C315        C316   1.404       .  A
C315        C320   1.401       .  A
C315        H322   1.084       .  S
C316        C317   1.420       .  A
C317        C318   1.398       .  A
C317        N324   1.426       .  S
C318        C319   1.401       .  A
C318        H323   1.084       .  S
C319        C320   1.419       .  A
C320        N321   1.428       .  S
N321        O325   1.262       .  A
N321        O326   1.261       .  A
N324        O328   1.260       .  A
N324        O327   1.262       .  A
C329        C330   1.405       .  A
C329        C334   1.396       .  A
C329        H336   1.084       .  S
C330        C331   1.415       .  A
C331        C332   1.399       .  A
C331        N338   1.429       .  S
C332        C333   1.406       .  A
C332        H337   1.084       .  S
C333        C334   1.412       .  A
C334        N335   1.428       .  S
N335        O339   1.261       .  A
N335        O340   1.262       .  A
N338        O342   1.262       .  A
N338        O341   1.262       .  A
C343        C344   1.402       .  A
C343        C348   1.398       .  A
C343        H350   1.082       .  S
C344        C345   1.416       .  A
C345        C346   1.401       .  A
C345        N352   1.429       .  S
C346        C347   1.406       .  A
C346        H351   1.084       .  S
C347        C348   1.415       .  A
C348        N349   1.427       .  S
N349        O353   1.261       .  A
N349        O354   1.262       .  A
N352        O356   1.262       .  A
N352        O355   1.262       .  A
C357        C358   1.404       .  A
C357        C362   1.397       .  A
C357        H364   1.084       .  S
C358        C359   1.415       .  A
C359        C360   1.399       .  A
C359        N366   1.429       .  S
C360        C361   1.406       .  A
C360        H365   1.084       .  S
C361        C362   1.415       .  A
C362        N363   1.427       .  S
N363        O367   1.260       .  A
N363        O368   1.261       .  A
N366        O370   1.262       .  A
N366        O369   1.262       .  A
C371        C372   1.405       .  A
C371        C376   1.399       .  A
C371        H378   1.084       .  S
C372        C373   1.417       .  A
C373        C374   1.400       .  A
C373        N380   1.428       .  S
C374        C375   1.405       .  A
C374        H379   1.083       .  S
C375        C376   1.416       .  A
C376        N377   1.428       .  S
N377        O381   1.262       .  A
N377        O382   1.261       .  A
N380        O384   1.262       .  A
N380        O383   1.262       .  A
C385        C390   1.399       .  A
C385        C938   1.401       .  A
C385        H392   1.082       .  S
C386        C757   1.494       .  S
C386        C387   1.418       .  A
C386        C937   1.404   1_556  A
C387        C388   1.401       .  A
C387        N394   1.428       .  S
C388        C389   1.404   1_556  A
C388        H393   1.084       .  S
C389        C942   1.418       .  A
C390        C941   1.418       .  A
C390        N391   1.429       .  S
N391        O395   1.261       .  A
N391        O948   1.262       .  A
N394        O398   1.262       .  A
N394        O949   1.262       .  A
O396        N943   1.262       .  A
O397        N946   1.262       .  A
C399        C404   1.399       .  A
C399        C952   1.404       .  A
C399        H406   1.084       .  S
C400        C401   1.415       .  A
C400        C951   1.404       .  A
C401        C402   1.395       .  A
C401        N408   1.429       .  S
C402        C403   1.405       .  A
C402        H407   1.084       .  S
C403        C758   1.487       .  S
C403        C956   1.418       .  A
C404        C955   1.418       .  A
C404        N405   1.427       .  S
N405        O409   1.261       .  A
N405        O962   1.262       .  A
N408        O412   1.262       .  A
N408        O963   1.262   1_554  A
O410        N957   1.262       .  A
O411        N960   1.262       .  A
C413        C418   1.399       .  A
C413        C966   1.401       .  A
C413        H420   1.084       .  S
C414        C727   1.496       .  S
C414        C415   1.420       .  A
C414        C965   1.403   1_556  A
C415        C416   1.401       .  A
C415        N422   1.428       .  S
C416        C417   1.404       .  A
C416        H421   1.084       .  S
C417        C970   1.418   1_556  A
C418        C969   1.414       .  A
C418        N419   1.426       .  S
N419        O423   1.261       .  A
N419        O424   1.262       .  A
N422        O426   1.262       .  A
N422        O425   1.262   1_556  A
C427        C428   1.403   1_554  A
C427        C432   1.396       .  A
C427        H434   1.082       .  S
C428        C726   1.490       .  S
C428        C981   1.417       .  A
C429        C430   1.402       .  A
C429        C980   1.415       .  A
C429        N436   1.428       .  S
C430        C983   1.404       .  A
C430        H435   1.081       .  S
C431        C432   1.413   1_556  A
C431        C982   1.404       .  A
C432        N433   1.424       .  S
N433        O437   1.260       .  A
N433        O990   1.261       .  A
N436        O440   1.262       .  A
N436        O991   1.262       .  A
O438        N985   1.262       .  A
O439        N988   1.262   1_554  A
C441        C446   1.403       .  A
C441       C1546   1.403       .  A
C441        H448   1.084       .  S
C442       C1256   1.489       .  S
C442        C443   1.417       .  A
C442       C1545   1.404   1_545  A
C443        C444   1.398       .  A
C443        N450   1.428       .  S
C444        C445   1.403   1_545  A
C444        H449   1.084       .  S
C445       C1550   1.419       .  A
C446       C1549   1.416       .  A
C446        N447   1.427       .  S
N447       O1555   1.261       .  A
N447        O452   1.262       .  A
N450       O1558   1.262   1_545  A
N450        O453   1.262       .  A
O451       N1551   1.262   1_545  A
O454       N1554   1.262       .  A
C455        C456   1.404       .  A
C455        C460   1.399       .  A
C455        H462   1.083       .  S
C456       C1561   1.420       .  A
C457        C458   1.400       .  A
C457       C1560   1.419       .  A
C457        N464   1.429       .  S
C458       C1563   1.404       .  A
C458        H463   1.084       .  S
C459       C1255   1.491       .  S
C459        C460   1.417       .  A
C459       C1562   1.403       .  A
C460        N461   1.428       .  S
N461       O1569   1.262       .  A
N461        O466   1.262   1_565  A
N464       O1572   1.262       .  A
N464        O467   1.261       .  A
O465       N1565   1.262       .  A
O468       N1568   1.261       .  A
C469        C474   1.397       .  A
C469       C1574   1.402       .  A
C469        H476   1.084       .  S
C470       C1225   1.492       .  S
C470        C471   1.419   1_545  A
C470       C1573   1.403       .  A
C471        C472   1.400       .  A
C471        N478   1.430       .  S
C472        C473   1.404   1_565  A
C472        H477   1.083       .  S
C473       C1578   1.416       .  A
C474       C1577   1.414       .  A
C474        N475   1.427       .  S
N475        O479   1.261       .  A
N475       O1584   1.262       .  A
N478        O482   1.260       .  A
N478       O1585   1.262       .  A
O480       N1579   1.262       .  A
O481       N1582   1.262       .  A
C483        C484   1.404   1_545  A
C483        C488   1.398       .  A
C483        H490   1.084       .  S
C484       C1589   1.416       .  A
C485        C486   1.395       .  A
C485       C1588   1.415       .  A
C485        N492   1.428       .  S
C486       C1591   1.404       .  A
C486        H491   1.084       .  S
C487       C1224   1.490       .  S
C487        C488   1.416       .  A
C487       C1590   1.405   1_545  A
C488        N489   1.428       .  S
N489        O493   1.262       .  A
N489       O1598   1.262       .  A
N492        O496   1.261       .  A
N492       O1599   1.261       .  A
O494       N1593   1.262       .  A
O495       N1596   1.262       .  A
C497        C502   1.401       .  A
C497       C2706   1.405       .  A
C497        H504   1.084       .  S
C498        C499   1.412   1_655  A
C498       C2705   1.403       .  A
C499        C500   1.394       .  A
C499        N506   1.429       .  S
C500        C501   1.401   1_455  A
C500        H505   1.080       .  S
C501       C2710   1.415       .  A
C502       C2709   1.416       .  A
C502        N503   1.428       .  S
N503        O507   1.262       .  A
N503        O508   1.262       .  A
N506        O510   1.262       .  A
N506        O509   1.262       .  A
C511        C512   1.402   1_655  A
C511        C516   1.399       .  A
C511        H518   1.084       .  S
C512       C2721   1.413       .  A
C513        C514   1.397       .  A
C513       C2720   1.412       .  A
C513        N520   1.425       .  S
C514       C2723   1.402       .  A
C514        H519   1.084       .  S
C515        C516   1.414   1_455  A
C515       C2722   1.404       .  A
C516        N517   1.428       .  S
N517        O521   1.262       .  A
N517        O522   1.262       .  A
N520        O524   1.261       .  A
N520        O523   1.262       .  A
C525        C526   1.390   1_455  A
C525        C530   1.391       .  A
C525        H532   1.077       .  S
C526       C2735   1.407       .  A
C527        C528   1.402       .  A
C527       C2734   1.405       .  A
C527        N534   1.431       .  S
C528       C2737   1.408       .  A
C528        H533   1.084       .  S
C529        C530   1.414   1_655  A
C529       C2736   1.411       .  A
C530        N531   1.427       .  S
N531        O535   1.261       .  A
N531        O536   1.262       .  A
N534        O538   1.261       .  A
N534        O537   1.263       .  A
C539        C540   1.399   1_455  A
C539        C544   1.396       .  A
C539        H546   1.077       .  S
C540       C2749   1.411       .  A
C541        C542   1.394       .  A
C541       C2748   1.414       .  A
C541        N548   1.428       .  S
C542       C2751   1.403       .  A
C542        H547   1.083       .  S
C543        C544   1.413       .  A
C543       C2750   1.401   1_455  A
C544        N545   1.427       .  S
N545        O549   1.262       .  A
N545        O550   1.262       .  A
N548        O552   1.262       .  A
N548        O551   1.262       .  A
O553        C564   1.288       .  A
O553       Eu589   2.449   1_645  S
O554        C565   1.291       .  A
O554       Eu588   2.448   1_545  S
O555        C566   1.289       .  A
O555       Eu561   2.454   1_455  S
O556        C567   1.287       .  A
O556      Eu2769   2.445       .  S
O557        C567   1.297       .  A
O557       Eu591   2.482       .  S
O558        C566   1.296       .  A
O558       Eu590   2.478       .  S
O559        C565   1.289       .  A
O560        C564   1.292       .  A
O560       Eu561   2.452       .  S
Eu561      O2764   2.449       .  S
Eu561      O2779   2.353       .  S
Eu561       O563   2.354   1_655  S
Eu561      O2218   2.351       .  S
O562      Eu2217   2.356       .  S
O562      Eu2796   2.356   1_545  S
O563       Eu589   2.354   1_545  S
O563       Eu590   2.347       .  S
C564       C1092   1.484       .  S
C565       C1050   1.479       .  S
C566        C983   1.492       .  S
C567        C952   1.496       .  S
H568        O569   0.962       .  S
O569       Eu588   2.354   1_445  S
H570        O571   0.962       .  S
O571      Eu2769   2.357       .  S
O571      Eu2797   2.359   1_545  S
O571       Eu591   2.346       .  S
O572        C595   1.293       .  A
O572      Eu1692   2.470   1_455  S
O573        C596   1.289       .  A
O573      Eu1693   2.447       .  S
O574        C597   1.289       .  A
O575        C598   1.291       .  A
O576        C599   1.291       .  A
O576       Eu591   2.450   1_565  S
O577        C600   1.292       .  A
O577       Eu590   2.453       .  S
O578        C601   1.294       .  A
O578       Eu592   2.468   1_455  S
O579        C602   1.297       .  A
O579      Eu2800   2.482       .  S
O580        C601   1.291       .  A
O580      Eu1694   2.457       .  S
O581        C602   1.287       .  A
O581      Eu1695   2.439       .  S
O582        C597   1.298       .  A
O582       Eu588   2.487   1_455  S
O583        C600   1.288       .  A
O583       Eu589   2.446   1_545  S
O584        C599   1.287       .  A
O584      Eu2797   2.441       .  S
O585        C598   1.296   1_545  A
O585      Eu2796   2.484   1_545  S
O586        C595   1.293       .  A
O587        C596   1.296       .  A
O587       Eu592   2.482       .  S
Eu588      O1676   2.439   1_655  S
Eu588      O2793   2.489       .  S
Eu588      O2770   2.352   1_565  S
Eu588      O3918   2.356       .  S
Eu588      O1698   2.351   1_655  S
Eu589      O1677   2.458       .  S
Eu589      O2792   2.429   1_455  S
Eu589      O2779   2.360   1_465  S
Eu589      O3905   2.353   1_455  S
Eu589      O1708   2.347       .  S
Eu590      O1684   2.466   1_545  S
Eu590      O1708   2.353   1_545  S
Eu590      O1146   2.357   1_545  S
Eu591      O1685   2.458   1_545  S
Eu591      O1697   2.348   1_545  S
Eu591      O1158   2.363   1_545  S
Eu592      O2787   2.470       .  S
Eu592      O2801   2.346       .  S
Eu592       O604   2.359   1_655  S
Eu592      O2262   2.357       .  S
O593      Eu3901   2.347       .  S
O593      Eu1695   2.353       .  S
O593      Eu2800   2.352       .  S
O594      Eu1692   2.349   1_455  S
O594      Eu1142   2.352       .  S
C595       C1067   1.484       .  S
C596       C1081   1.486       .  S
C597       C1008   1.499       .  S
C598        C997   1.489   1_565  S
C599       C1036   1.481       .  S
C600       C1025   1.485       .  S
C601        C969   1.484       .  S
C602        C941   1.487       .  S
H603        O604   0.964       .  S
O604      Eu1693   2.353   1_455  S
O604      Eu1694   2.357       .  S
H605        O606   0.960       .  S
O606      Eu3900   2.355       .  S
O606      Eu1143   2.359   1_556  S
O606      Eu2248   2.357   1_556  S
O607        C618   1.287       .  A
O607       Eu643   2.441       .  S
O608        C619   1.292       .  A
O608       Eu642   2.455       .  S
O609        C620   1.289       .  A
O609       Eu615   2.449       .  S
O610        C621   1.289       .  A
O610      Eu2823   2.451       .  S
O611        C621   1.295       .  A
O611       Eu645   2.471       .  S
O612        C620   1.296       .  A
O612       Eu644   2.473       .  S
O613        C619   1.287       .  A
O613       Eu615   2.439   1_655  S
O614        C618   1.292       .  A
O614       Eu615   2.455       .  S
Eu615      O2818   2.454   1_455  S
Eu615      O2833   2.347   1_455  S
Eu615       O617   2.354       .  S
Eu615      O2824   2.350   1_455  S
Eu615       O623   2.355       .  S
O616      Eu2823   2.354       .  S
O616       Eu645   2.354       .  S
O616      Eu2850   2.345       .  S
O617       Eu643   2.353       .  S
O617       Eu644   2.363       .  S
C618       C1095   1.484   1_455  S
C619       C1053   1.479       .  S
C620        C857   1.485       .  S
C621        C826   1.486       .  S
H622        O623   0.967       .  S
O623       Eu644   2.352       .  S
O623       Eu642   2.345   1_455  S
H624        O625   0.965       .  S
O625      Eu2823   2.344       .  S
O625      Eu2851   2.344       .  S
O625       Eu645   2.357       .  S
O626        C649   1.289       .  A
O626       Eu642   2.448       .  S
O627        C650   1.287       .  A
O627       Eu643   2.432   1_655  S
O628        C651   1.295       .  A
O628       Eu644   2.466       .  S
O629        C652   1.291       .  A
O629       Eu645   2.459       .  S
O630        C653   1.293       .  A
O630       Eu645   2.459       .  S
O631        C654   1.291       .  A
O631       Eu644   2.460       .  S
O632        C655   1.289       .  A
O632       Eu646   2.453   1_455  S
O633        C656   1.286       .  A
O633      Eu2854   2.438       .  S
O634        C655   1.296       .  A
O634       Eu644   2.478       .  S
O635        C656   1.297       .  A
O635       Eu645   2.486       .  S
O636        C651   1.293       .  A
O636       Eu642   2.474   1_455  S
O637        C654   1.295       .  A
O637       Eu643   2.474       .  S
O638        C653   1.293       .  A
O638      Eu2851   2.474       .  S
O639        C652   1.293       .  A
O639      Eu2850   2.460       .  S
O640        C649   1.293       .  A
O640       Eu646   2.462       .  S
O641        C650   1.292       .  A
O641       Eu646   2.460       .  S
Eu642      O2847   2.456       .  S
Eu642      O2824   2.348       .  S
Eu642      O2868   2.356       .  S
Eu642       O648   2.357   1_655  S
Eu643      O2846   2.474   1_455  S
Eu643      O2833   2.352   1_455  S
Eu643      O2855   2.352   1_455  S
Eu643       O658   2.355       .  S
Eu644       O658   2.354       .  S
Eu644       O648   2.349       .  S
Eu645       O647   2.343       .  S
Eu645       O660   2.351       .  S
Eu646      O2841   2.441       .  S
Eu646      O2855   2.353       .  S
Eu646       O658   2.348   1_655  S
Eu646      O2868   2.351       .  S
Eu646       O648   2.354   1_655  S
O647      Eu2851   2.358       .  S
O647      Eu2854   2.354       .  S
C649       C1064   1.482       .  S
C650       C1078   1.475       .  S
C651        C913   1.496       .  S
C652        C924   1.488       .  S
C653        C882   1.491       .  S
C654        C896   1.484       .  S
C655        C868   1.495       .  S
C656        C843   1.491       .  S
H657        O658   0.965       .  S
H659        O660   0.964       .  S
O660      Eu2850   2.360       .  S
O660      Eu2854   2.347       .  S
O661        C672   1.294       .  A
O661       Eu697   2.465       .  S
O662        C673   1.295       .  A
O662       Eu696   2.472       .  S
O663        C674   1.292       .  A
O663       Eu669   2.455       .  S
O664        C675   1.288       .  A
O664      Eu1773   2.445       .  S
O665        C675   1.292       .  A
O665       Eu699   2.457       .  S
O666        C674   1.290       .  A
O666       Eu698   2.454       .  S
O667        C673   1.289       .  A
O667       Eu669   2.453       .  S
O668        C672   1.291       .  A
O668       Eu669   2.460       .  S
Eu669      O1768   2.451       .  S
Eu669      O1783   2.360       .  S
Eu669       O671   2.354       .  S
Eu669      O1774   2.353       .  S
Eu669       O677   2.353       .  S
O670      Eu1773   2.346       .  S
O670       Eu699   2.357       .  S
O670      Eu1800   2.345       .  S
O671       Eu697   2.355       .  S
O671       Eu698   2.361       .  S
C672       C2143   1.486       .  S
C673       C2126   1.487       .  S
C674        C787   1.479       .  S
C675        C770   1.475       .  S
H676        O677   0.965       .  S
O677       Eu698   2.357       .  S
O677       Eu696   2.343       .  S
H678        O679   0.968       .  S
O679      Eu1773   2.362       .  S
O679      Eu1801   2.355       .  S
O679       Eu699   2.356       .  S
O680        C703   1.287       .  A
O680       Eu696   2.436       .  S
O681        C704   1.291       .  A
O681       Eu697   2.463       .  S
O682        C705   1.289       .  A
O682       Eu698   2.453       .  S
O683        C706   1.290       .  A
O683       Eu699   2.456       .  S
O684        C707   1.292       .  A
O684       Eu699   2.467       .  S
O685        C708   1.289       .  A
O685       Eu698   2.450       .  S
O686        C709   1.287       .  A
O686       Eu700   2.443       .  S
O687        C710   1.289       .  A
O687      Eu1804   2.451       .  S
O688        C709   1.293       .  A
O688       Eu698   2.463       .  S
O689        C710   1.293       .  A
O689       Eu699   2.473       .  S
O690        C705   1.295       .  A
O690       Eu696   2.470       .  S
O691        C708   1.295       .  A
O691       Eu697   2.471       .  S
O692        C707   1.293       .  A
O692      Eu1801   2.461       .  S
O693        C706   1.294       .  A
O693      Eu1800   2.467       .  S
O694        C703   1.296       .  A
O694       Eu700   2.476       .  S
O695        C704   1.296       .  A
O695       Eu700   2.480       .  S
Eu696      O1797   2.471       .  S
Eu696      O1774   2.341       .  S
Eu696      O1818   2.364       .  S
Eu696       O702   2.352       .  S
Eu697      O1796   2.471       .  S
Eu697      O1783   2.352       .  S
Eu697      O1805   2.348       .  S
Eu697       O712   2.361       .  S
Eu698       O712   2.355       .  S
Eu698       O702   2.340       .  S
Eu699       O701   2.342       .  S
Eu699       O714   2.358       .  S
Eu700      O1791   2.448       .  S
Eu700      O1805   2.345       .  S
Eu700       O712   2.355       .  S
Eu700      O1818   2.357       .  S
Eu700       O702   2.349       .  S
O701      Eu1801   2.348       .  S
O701      Eu1804   2.344       .  S
C703       C2115   1.488       .  S
C704       C2098   1.489       .  S
C705        C871   1.493       .  S
C706        C854   1.487       .  S
C707        C829   1.487       .  S
C708        C840   1.490       .  S
C709        C798   1.488       .  S
C710        C812   1.477       .  S
H711        O712   0.964       .  S
H713        O714   0.965       .  S
O714      Eu1800   2.367       .  S
O714      Eu1804   2.353       .  S
O715        C726   1.288       .  A
O715       Eu751   2.452   1_556  S
O716        C727   1.298       .  A
O716       Eu750   2.485       .  S
O717        C728   1.291       .  A
O718        C729   1.294       .  A
O718       Eu723   2.463   1_556  S
O719        C729   1.292       .  A
O719       Eu753   2.467       .  S
O720        C728   1.293       .  A
O720       Eu752   2.468       .  S
O721        C727   1.289       .  A
O721       Eu723   2.448   1_556  S
O722        C726   1.294       .  A
O722       Eu723   2.466   1_556  S
Eu723       O733   2.346   1_554  S
Eu723       O724   2.353   1_554  S
O724       Eu753   2.347       .  S
O724       Eu750   2.346       .  S
O725       Eu752   2.360       .  S
C728        C899   1.483       .  S
C729        C910   1.494       .  S
H730        O731   0.970       .  S
O731       Eu752   2.348       .  S
H732        O733   0.969       .  S
O733       Eu751   2.351   1_556  S
O733       Eu753   2.358       .  S
O734        C757   1.296       .  A
O734       Eu750   2.477       .  S
O735        C758   1.286       .  A
O735       Eu751   2.436       .  S
O736        C759   1.291       .  A
O736       Eu752   2.452       .  S
O737        C760   1.289       .  A
O737       Eu753   2.453       .  S
O738        C761   1.287       .  A
O738       Eu753   2.433       .  S
O739        C762   1.288       .  A
O739       Eu752   2.446       .  S
O740        C763   1.295       .  A
O741        C764   1.288       .  A
O741       Eu754   2.446   1_556  S
O742        C763   1.290       .  A
O742       Eu752   2.459       .  S
O743        C764   1.295       .  A
O743       Eu753   2.470       .  S
O744        C759   1.291       .  A
O745        C762   1.291       .  A
O746        C761   1.289       .  A
O746       Eu751   2.452   1_556  S
O747        C760   1.293       .  A
O747       Eu750   2.456       .  S
O748        C757   1.290       .  A
O748       Eu754   2.458   1_556  S
O749        C758   1.294       .  A
O749       Eu754   2.466       .  S
Eu750       O768   2.353       .  S
Eu751       O755   2.354   1_554  S
Eu752       O766   2.355       .  S
Eu752       O756   2.351       .  S
Eu753       O755   2.351       .  S
Eu753       O768   2.344       .  S
Eu754       O755   2.346   1_554  S
Eu754       O768   2.356   1_554  S
C759        C784   1.480       .  S
C760        C801   1.489       .  S
C761        C815   1.464       .  S
C762        C773   1.473       .  S
C763        C885   1.491       .  S
C764        C927   1.488       .  S
H765        O766   0.970       .  S
H767        O768   0.977       .  S
C769        C770   1.402       .  A
C769        C774   1.396       .  A
C769        H776   1.084       .  S
C770        C771   1.413       .  A
C771        C772   1.393       .  A
C771        N778   1.427       .  S
C772        C773   1.401       .  A
C772        H777   1.084       .  S
C773        C774   1.412       .  A
C774        N775   1.427       .  S
N775        O779   1.261       .  A
N775        O780   1.262       .  A
N778        O782   1.262       .  A
N778        O781   1.262       .  A
C783        C784   1.403       .  A
C783        C788   1.397       .  A
C783        H790   1.084       .  S
C784        C785   1.412       .  A
C785        C786   1.395       .  A
C785        N792   1.425       .  S
C786        C787   1.401       .  A
C786        H791   1.084       .  S
C787        C788   1.413       .  A
C788        N789   1.427       .  S
N789        O793   1.262       .  A
N789        O794   1.261       .  A
N792        O796   1.261       .  A
N792        O795   1.262       .  A
C797        C798   1.404       .  A
C797        C802   1.396       .  A
C797        H804   1.083       .  S
C798        C799   1.417       .  A
C799        C800   1.398       .  A
C799        N806   1.429       .  S
C800        C801   1.406       .  A
C800        H805   1.084       .  S
C801        C802   1.416       .  A
C802        N803   1.428       .  S
N803        O807   1.260       .  A
N803        O808   1.261       .  A
N806        O810   1.262       .  A
N806        O809   1.262       .  A
C811        C812   1.404       .  A
C811        C816   1.400       .  A
C811        H818   1.084       .  S
C812        C813   1.416       .  A
C813        C814   1.397       .  A
C813        N820   1.428       .  S
C814        C815   1.395       .  A
C814        H819   1.084       .  S
C815        C816   1.406       .  A
C816        N817   1.428       .  S
N817        O821   1.260       .  A
N817        O822   1.262       .  A
N820        O824   1.262       .  A
N820        O823   1.262       .  A
C825        C826   1.403       .  A
C825        C830   1.399       .  A
C825        H832   1.084       .  S
C826        C827   1.416       .  A
C827        C828   1.400       .  A
C827        N834   1.428       .  S
C828        C829   1.404       .  A
C828        H833   1.084       .  S
C829        C830   1.414       .  A
C830        N831   1.427       .  S
N831        O835   1.262       .  A
N831        O836   1.262       .  A
N834        O838   1.262       .  A
N834        O837   1.262       .  A
C839        C840   1.404       .  A
C839        C844   1.400       .  A
C839        H846   1.084       .  S
C840        C841   1.417       .  A
C841        C842   1.397       .  A
C841        N848   1.427       .  S
C842        C843   1.402       .  A
C842        H847   1.082       .  S
C843        C844   1.419       .  A
C844        N845   1.429       .  S
N845        O849   1.262       .  A
N845        O850   1.262       .  A
N848        O852   1.261       .  A
N848        O851   1.262       .  A
C853        C854   1.404       .  A
C853        C858   1.399       .  A
C853        H860   1.084       .  S
C854        C855   1.416       .  A
C855        C856   1.398       .  A
C855        N862   1.428       .  S
C856        C857   1.403       .  A
C856        H861   1.084       .  S
C857        C858   1.417       .  A
C858        N859   1.429       .  S
N859        O863   1.262       .  A
N859        O864   1.262       .  A
N862        O866   1.262       .  A
N862        O865   1.262       .  A
C867        C868   1.405       .  A
C867        C872   1.400       .  A
C867        H874   1.084       .  S
C868        C869   1.418       .  A
C869        C870   1.399       .  A
C869        N876   1.426       .  S
C870        C871   1.403       .  A
C870        H875   1.084       .  S
C871        C872   1.418       .  A
C872        N873   1.428       .  S
N873        O877   1.262       .  A
N873        O878   1.261       .  A
N876        O880   1.260       .  A
N876        O879   1.262       .  A
C881        C882   1.405       .  A
C881        C886   1.400       .  A
C881        H888   1.084       .  S
C882        C883   1.414       .  A
C883        C884   1.400       .  A
C883        N890   1.425       .  S
C884        C885   1.404       .  A
C884        H889   1.084       .  S
C885        C886   1.416       .  A
C886        N887   1.428       .  S
N887        O891   1.261       .  A
N887        O892   1.262       .  A
N890        O894   1.261       .  A
N890        O893   1.262       .  A
C895        C896   1.398       .  A
C895        C900   1.397       .  A
C895        H902   1.076       .  S
C896        C897   1.413       .  A
C897        C898   1.403       .  A
C897        N904   1.427       .  S
C898        C899   1.404       .  A
C898        H903   1.084       .  S
C899        C900   1.412       .  A
C900        N901   1.427       .  S
N901        O905   1.262       .  A
N901        O906   1.262       .  A
N904        O908   1.262       .  A
N904        O907   1.262       .  A
C909        C910   1.405       .  A
C909        C914   1.401       .  A
C909        H916   1.084       .  S
C910        C911   1.415       .  A
C911        C912   1.399       .  A
C911        N918   1.424       .  S
C912        C913   1.404       .  A
C912        H917   1.084       .  S
C913        C914   1.417       .  A
C914        N915   1.425       .  S
N915        O919   1.261       .  A
N915        O920   1.262       .  A
N918        O922   1.261       .  A
N918        O921   1.262       .  A
C923        C924   1.405       .  A
C923        C928   1.400       .  A
C923        H930   1.084       .  S
C924        C925   1.414       .  A
C925        C926   1.396       .  A
C925        N932   1.427       .  S
C926        C927   1.402       .  A
C926        H931   1.082       .  S
C927        C928   1.417       .  A
C928        N929   1.429       .  S
N929        O933   1.262       .  A
N929        O934   1.262       .  A
N932        O936   1.261       .  A
N932        O935   1.262       .  A
C937        C942   1.400       .  A
C937        H944   1.082       .  S
C938        C939   1.415       .  A
C939        C940   1.398       .  A
C939        N946   1.426       .  S
C940        C941   1.402       .  A
C940        H945   1.084       .  S
C942        N943   1.429       .  S
N943        O947   1.260       .  A
N946        O950   1.261       .  A
C951        C956   1.395       .  A
C951        H958   1.084   1_554  S
C952        C953   1.420       .  A
C953        C954   1.400       .  A
C953        N960   1.428       .  S
C954        C955   1.405       .  A
C954        H959   1.084       .  S
C956        N957   1.429       .  S
N957        O961   1.262   1_554  A
N960        O964   1.262       .  A
C965        C970   1.400       .  A
C965        H972   1.084       .  S
C966        C967   1.416       .  A
C967        C968   1.400       .  A
C967        N974   1.428       .  S
C968        C969   1.402       .  A
C968        H973   1.084       .  S
C970        N971   1.426       .  S
N971        O975   1.261       .  A
N971        O976   1.261   1_554  A
N974        O978   1.262       .  A
N974        O977   1.262       .  A
C979        C980   1.402       .  A
C979        C984   1.399       .  A
C979        H986   1.081       .  S
C981        C982   1.399       .  A
C981        N988   1.428       .  S
C982        H987   1.083       .  S
C983        C984   1.416       .  A
C984        N985   1.427       .  S
N985        O989   1.261       .  A
N988        O992   1.262       .  A
C993       C2098   1.402       .  A
C993        C998   1.402       .  A
C993       H1000   1.084       .  S
C994       C1808   1.488       .  S
C994       C2097   1.403   1_545  A
C994        C995   1.415       .  A
C995        C996   1.403       .  A
C995       N1002   1.428       .  S
C996        C997   1.403       .  A
C996       H1001   1.084       .  S
C997       C2102   1.416   1_545  A
C998       C2101   1.416       .  A
C998        N999   1.425       .  S
N999       O2107   1.260       .  A
N999       O1004   1.262       .  A
N1002      O2110   1.262       .  A
N1002      O1005   1.262       .  A
O1003      N2103   1.261       .  A
O1006      N2106   1.262       .  A
C1007      C1008   1.405       .  A
C1007      C1012   1.401       .  A
C1007      H1014   1.083       .  S
C1008      C2113   1.420   1_565  A
C1009      C2112   1.418       .  A
C1009      C1010   1.396       .  A
C1009      N1016   1.427       .  S
C1010      C2115   1.402       .  A
C1010      H1015   1.084       .  S
C1011      C1807   1.496       .  S
C1011      C2114   1.403       .  A
C1011      C1012   1.421   1_545  A
C1012      N1013   1.429       .  S
N1013      O2121   1.262       .  A
N1013      O1018   1.262   1_565  A
N1016      O2124   1.262       .  A
N1016      O1019   1.261       .  A
O1017      N2117   1.262       .  A
O1020      N2120   1.262       .  A
C1021      C2126   1.404       .  A
C1021      C1026   1.398       .  A
C1021      H1028   1.084       .  S
C1022      C1777   1.487       .  S
C1022      C2125   1.405       .  A
C1022      C1023   1.415   1_545  A
C1023      C1024   1.396       .  A
C1023      N1030   1.428       .  S
C1024      C1025   1.403   1_565  A
C1024      H1029   1.083       .  S
C1025      C2130   1.415       .  A
C1026      C2129   1.412       .  A
C1026      N1027   1.426       .  S
N1027      O1031   1.261       .  A
N1027      O2136   1.262       .  A
N1030      O1034   1.261       .  A
N1030      O2137   1.262       .  A
O1032      N2131   1.262       .  A
O1033      N2134   1.262       .  A
C1035      C1036   1.403   1_545  A
C1035      C1040   1.395       .  A
C1035      H1042   1.084       .  S
C1036      C2141   1.415       .  A
C1037      C2140   1.415       .  A
C1037      C1038   1.399       .  A
C1037      N1044   1.429       .  S
C1038      C2143   1.404       .  A
C1038      H1043   1.084       .  S
C1039      C1776   1.483       .  S
C1039      C2142   1.404   1_545  A
C1039      C1040   1.417       .  A
C1040      N1041   1.429       .  S
N1041      O1045   1.262       .  A
N1041      O2150   1.262   1_545  A
N1044      O1048   1.262       .  A
N1044      O2151   1.262       .  A
O1046      N2145   1.262       .  A
O1047      N2148   1.262       .  A
C1049      C3258   1.405       .  A
C1049      C1054   1.400       .  A
C1049      H1056   1.084       .  S
C1050      C3257   1.405       .  A
C1050      C1051   1.413   1_655  A
C1051      C1052   1.393       .  A
C1051      N1058   1.428       .  S
C1052      C1053   1.400   1_455  A
C1052      H1057   1.080       .  S
C1053      C3262   1.414       .  A
C1054      C3261   1.415       .  A
C1054      N1055   1.429       .  S
N1055      O1059   1.262       .  A
N1055      O1060   1.262       .  A
N1058      O1062   1.262       .  A
N1058      O1061   1.262       .  A
C1063      C1064   1.403   1_455  A
C1063      C1068   1.397       .  A
C1063      H1070   1.084       .  S
C1064      C3273   1.415       .  A
C1065      C3272   1.414       .  A
C1065      C1066   1.399       .  A
C1065      N1072   1.429       .  S
C1066      C3275   1.403       .  A
C1066      H1071   1.084       .  S
C1067      C3274   1.405   1_455  A
C1067      C1068   1.413       .  A
C1068      N1069   1.427       .  S
N1069      O1073   1.262       .  A
N1069      O1074   1.262       .  A
N1072      O1076   1.262       .  A
N1072      O1075   1.262       .  A
C1077      C1078   1.392   1_455  A
C1077      C1082   1.394       .  A
C1077      H1084   1.078       .  S
C1078      C3287   1.409       .  A
C1079      C3286   1.406       .  A
C1079      C1080   1.401       .  A
C1079      N1086   1.431       .  S
C1080      C3289   1.406       .  A
C1080      H1085   1.084       .  S
C1081      C3288   1.409       .  A
C1081      C1082   1.417   1_655  A
C1082      N1083   1.428       .  S
N1083      O1087   1.262       .  A
N1083      O1088   1.262       .  A
N1086      O1090   1.261       .  A
N1086      O1089   1.263       .  A
C1091      C1092   1.401   1_455  A
C1091      C1096   1.394       .  A
C1091      H1098   1.083       .  S
C1092      C3301   1.413       .  A
C1093      C3300   1.415       .  A
C1093      C1094   1.397       .  A
C1093      N1100   1.428       .  S
C1094      C3303   1.404       .  A
C1094      H1099   1.083       .  S
C1095      C3302   1.402       .  A
C1095      C1096   1.415   1_655  A
C1096      N1097   1.424       .  S
N1097      O1101   1.259       .  A
N1097      O1102   1.260   1_455  A
N1100      O1104   1.261       .  A
N1100      O1103   1.261       .  A
O1105      C1116   1.289       .  A
O1105     Eu1141   2.450   1_655  S
O1106      C1117   1.292   1_455  A
O1106     Eu1140   2.454       .  S
O1107      C1118   1.288       .  A
O1107     Eu1113   2.449   1_455  S
O1108      C1119   1.286       .  A
O1108     Eu3321   2.438       .  S
O1109      C1119   1.295       .  A
O1109     Eu1143   2.469       .  S
O1110      C1118   1.294       .  A
O1110     Eu1142   2.466   1_554  S
O1111      C1117   1.289       .  A
O1111     Eu1665   2.450       .  S
O1112      C1116   1.291       .  A
O1112     Eu1113   2.452       .  S
Eu1113     O3316   2.450       .  S
Eu1113     O1663   2.449   1_554  S
Eu1113     O3331   2.349       .  S
Eu1113     O1115   2.354   1_655  S
Eu1113     O3874   2.352   1_554  S
Eu1113     O1673   2.360   1_654  S
O1114     Eu3873   2.358       .  S
O1114     Eu1695   2.350       .  S
O1114     Eu3348   2.361       .  S
O1115     Eu1141   2.355       .  S
O1115     Eu1142   2.347   1_554  S
C1116      C1644   1.482       .  S
C1117      C1602   1.480   1_655  S
C1118      C1535   1.494       .  S
C1119      C1504   1.487       .  S
H1120      O1121   0.962       .  S
O1121     Eu1665   2.360   1_455  S
O1121     Eu1694   2.350       .  S
O1121     Eu1140   2.354       .  S
H1122      O1123   0.962       .  S
O1123     Eu3321   2.347       .  S
O1123     Eu3349   2.354       .  S
O1123     Eu1143   2.350       .  S
O1124      C1147   1.290       .  A
O1125      C1148   1.290       .  A
O1126      C1149   1.288       .  A
O1126     Eu1694   2.446       .  S
O1127      C1150   1.292       .  A
O1127     Eu1695   2.468       .  S
O1128      C1151   1.292       .  A
O1128     Eu1143   2.456       .  S
O1129      C1152   1.292       .  A
O1129     Eu1142   2.456   1_554  S
O1130      C1153   1.296       .  A
O1130     Eu1144   2.477       .  S
O1131      C1154   1.297       .  A
O1131     Eu3352   2.484       .  S
O1132      C1153   1.290       .  A
O1133      C1154   1.288       .  A
O1134      C1149   1.297       .  A
O1134     Eu1140   2.486       .  S
O1135      C1152   1.289       .  A
O1135     Eu1141   2.450       .  S
O1136      C1151   1.288       .  A
O1136     Eu3349   2.445       .  S
O1137      C1150   1.296       .  A
O1137     Eu3348   2.481       .  S
O1138      C1147   1.295       .  A
O1138     Eu1696   2.474       .  S
O1139      C1148   1.292       .  A
O1139     Eu1144   2.462   1_655  S
Eu1140     O3345   2.470   1_455  S
Eu1140     O3322   2.355   1_455  S
Eu1140     O2262   2.357   1_455  S
Eu1141     O3344   2.441   1_455  S
Eu1141     O3331   2.359   1_455  S
Eu1141     O2249   2.349   1_455  S
Eu1142     O1678   2.449       .  S
Eu1142     O1673   2.356       .  S
Eu1143     O1679   2.467   1_554  S
Eu1143     O1666   2.349   1_554  S
Eu1144     O3339   2.472   1_455  S
Eu1144     O1690   2.471   1_554  S
Eu1144     O3353   2.350   1_455  S
Eu1144     O1156   2.357       .  S
Eu1144     O3918   2.354   1_454  S
Eu1144     O1698   2.346   1_554  S
O1145     Eu2245   2.346       .  S
O1145     Eu3352   2.346       .  S
O1146     Eu1696   2.351       .  S
C1147      C1619   1.484       .  S
C1148      C1633   1.480       .  S
C1149      C1560   1.492       .  S
C1150      C1549   1.490       .  S
C1151      C1588   1.484       .  S
C1152      C1577   1.485       .  S
C1153      C1521   1.490   1_554  S
C1154      C1493   1.490       .  S
H1155      O1156   0.964       .  S
H1157      O1158   0.960       .  S
O1158     Eu2244   2.356       .  S
O1158     Eu3904   2.354       .  S
O1159      C1170   1.289       .  A
O1159     Eu1195   2.450       .  S
O1160      C1171   1.291       .  A
O1160     Eu1194   2.449   1_455  S
O1161      C1172   1.287       .  A
O1161     Eu1167   2.442       .  S
O1162      C1173   1.290       .  A
O1162     Eu3375   2.455       .  S
O1163      C1173   1.294       .  A
O1163     Eu1197   2.461       .  S
O1164      C1172   1.295       .  A
O1164     Eu1196   2.472       .  S
O1165      C1171   1.288       .  A
O1165     Eu1167   2.445       .  S
O1166      C1170   1.292       .  A
O1166     Eu1167   2.458       .  S
Eu1167     O3370   2.445   1_455  S
Eu1167     O3385   2.349   1_455  S
Eu1167     O1169   2.341       .  S
Eu1167     O3376   2.356   1_455  S
Eu1167     O1175   2.356       .  S
O1168     Eu3375   2.355       .  S
O1168     Eu1197   2.354       .  S
O1168     Eu3402   2.349       .  S
O1169     Eu1195   2.344       .  S
O1169     Eu1196   2.352       .  S
C1170      C1647   1.484       .  S
C1171      C1605   1.480       .  S
C1172      C1409   1.486       .  S
C1173      C1378   1.489       .  S
H1174      O1175   0.967       .  S
O1175     Eu1196   2.350       .  S
O1175     Eu1194   2.360   1_455  S
H1176      O1177   0.965       .  S
O1177     Eu3375   2.349       .  S
O1177     Eu3403   2.347       .  S
O1177     Eu1197   2.356       .  S
O1178      C1201   1.291       .  A
O1178     Eu1194   2.460       .  S
O1179      C1202   1.287       .  A
O1179     Eu1195   2.437   1_655  S
O1180      C1203   1.295       .  A
O1180     Eu1196   2.473       .  S
O1181      C1204   1.292       .  A
O1181     Eu1197   2.466       .  S
O1182      C1205   1.293       .  A
O1182     Eu1197   2.457       .  S
O1183      C1206   1.291       .  A
O1183     Eu1196   2.457       .  S
O1184      C1207   1.290       .  A
O1184     Eu1198   2.457   1_455  S
O1185      C1208   1.288       .  A
O1185     Eu3406   2.444       .  S
O1186      C1207   1.296       .  A
O1186     Eu1196   2.475       .  S
O1187      C1208   1.296       .  A
O1187     Eu1197   2.478       .  S
O1188      C1203   1.293       .  A
O1188     Eu1194   2.472   1_455  S
O1189      C1206   1.294       .  A
O1189     Eu1195   2.466       .  S
O1190      C1205   1.292       .  A
O1190     Eu3403   2.468       .  S
O1191      C1204   1.294       .  A
O1191     Eu3402   2.465       .  S
O1192      C1201   1.294       .  A
O1192     Eu1198   2.470       .  S
O1193      C1202   1.289       .  A
O1193     Eu1198   2.438       .  S
Eu1194     O3399   2.472       .  S
Eu1194     O3376   2.350       .  S
Eu1194     O3420   2.352       .  S
Eu1194     O1200   2.355   1_655  S
Eu1195     O3398   2.477   1_455  S
Eu1195     O3385   2.350   1_455  S
Eu1195     O3407   2.352   1_455  S
Eu1195     O1210   2.365       .  S
Eu1196     O1210   2.357       .  S
Eu1196     O1200   2.353       .  S
Eu1197     O1199   2.345       .  S
Eu1197     O1212   2.351       .  S
Eu1198     O3393   2.441       .  S
Eu1198     O3407   2.357       .  S
Eu1198     O1210   2.359   1_655  S
Eu1198     O3420   2.348       .  S
Eu1198     O1200   2.348   1_655  S
O1199     Eu3403   2.353       .  S
O1199     Eu3406   2.356       .  S
C1201      C1616   1.485       .  S
C1202      C1630   1.468       .  S
C1203      C1465   1.495       .  S
C1204      C1476   1.495       .  S
C1205      C1434   1.490       .  S
C1206      C1448   1.488       .  S
C1207      C1420   1.494       .  S
C1208      C1395   1.489       .  S
H1209      O1210   0.966       .  S
H1211      O1212   0.964       .  S
O1212     Eu3402   2.355       .  S
O1212     Eu3406   2.353       .  S
O1213      C1224   1.293       .  A
O1213     Eu1249   2.462   1_545  S
O1214      C1225   1.297       .  A
O1214     Eu1248   2.482       .  S
O1215      C1226   1.294       .  A
O1215     Eu1221   2.467       .  S
O1216      C1227   1.289       .  A
O1217      C1227   1.294       .  A
O1217     Eu1251   2.468       .  S
O1218      C1226   1.286       .  A
O1218     Eu1250   2.439       .  S
O1219      C1225   1.287       .  A
O1219     Eu1221   2.442   1_545  S
O1220      C1224   1.290       .  A
O1220     Eu1221   2.461   1_545  S
Eu1221     O1223   2.350       .  S
Eu1221     O1229   2.351       .  S
O1222     Eu1251   2.356       .  S
O1223     Eu1249   2.354       .  S
O1223     Eu1250   2.362       .  S
C1226      C1339   1.486       .  S
C1227      C1322   1.482       .  S
H1228      O1229   0.965       .  S
O1229     Eu1250   2.357       .  S
O1229     Eu1248   2.348   1_565  S
H1230      O1231   0.967       .  S
O1231     Eu1251   2.359       .  S
O1232      C1255   1.289       .  A
O1232     Eu1248   2.448   1_565  S
O1233      C1256   1.288       .  A
O1233     Eu1249   2.446   1_545  S
O1234      C1257   1.290       .  A
O1234     Eu1250   2.458       .  S
O1235      C1258   1.287       .  A
O1235     Eu1251   2.440       .  S
O1236      C1259   1.287       .  A
O1236     Eu1251   2.441       .  S
O1237      C1260   1.290       .  A
O1237     Eu1250   2.455       .  S
O1238      C1261   1.289       .  A
O1238     Eu1252   2.449       .  S
O1239      C1262   1.289       .  A
O1240      C1261   1.290       .  A
O1240     Eu1250   2.445       .  S
O1241      C1262   1.296       .  A
O1241     Eu1251   2.485       .  S
O1242      C1257   1.294       .  A
O1242     Eu1248   2.464   1_565  S
O1243      C1260   1.295       .  A
O1243     Eu1249   2.471       .  S
O1244      C1259   1.296       .  A
O1245      C1258   1.297       .  A
O1246      C1255   1.295       .  A
O1246     Eu1252   2.467       .  S
O1247      C1256   1.294       .  A
O1247     Eu1252   2.466   1_545  S
Eu1248     O1254   2.348   1_545  S
Eu1249     O1264   2.363       .  S
Eu1250     O1264   2.355       .  S
Eu1250     O1254   2.338       .  S
Eu1251     O1253   2.346       .  S
Eu1251     O1266   2.350       .  S
Eu1252     O1264   2.354       .  S
Eu1252     O1254   2.343       .  S
C1257      C1423   1.491       .  S
C1258      C1406   1.487       .  S
C1259      C1381   1.488       .  S
C1260      C1392   1.490       .  S
C1261      C1350   1.478       .  S
C1262      C1364   1.493       .  S
H1263      O1264   0.964       .  S
H1265      O1266   0.965       .  S
O1267      C1278   1.287       .  A
O1267     Eu1303   2.445       .  S
O1268      C1279   1.297       .  A
O1268     Eu1302   2.485       .  S
O1269      C1280   1.289       .  A
O1269     Eu1827   2.451   1_554  S
O1270      C1281   1.293       .  A
O1270     Eu1275   2.464       .  S
O1271      C1281   1.293       .  A
O1271     Eu1305   2.474       .  S
O1272      C1280   1.294       .  A
O1272     Eu1304   2.468       .  S
O1273      C1279   1.290       .  A
O1273     Eu1275   2.452       .  S
O1274      C1278   1.296       .  A
O1274     Eu1275   2.475       .  S
Eu1275     O1821   2.448       .  S
Eu1275     O1285   2.343       .  S
Eu1275     O1829   2.348       .  S
Eu1275     O1276   2.350       .  S
Eu1275     O1835   2.362       .  S
O1276     Eu1305   2.345       .  S
O1276     Eu1302   2.347       .  S
O1277     Eu1827   2.349   1_554  S
O1277     Eu1855   2.353       .  S
O1277     Eu1304   2.356       .  S
C1278      C2084   1.493       .  S
C1279      C2070   1.490       .  S
C1280      C1451   1.488       .  S
C1281      C1462   1.494       .  S
H1282      O1283   0.970       .  S
O1283     Eu1827   2.361   1_554  S
O1283     Eu1304   2.349       .  S
O1283     Eu1854   2.354   1_554  S
H1284      O1285   0.970       .  S
O1285     Eu1303   2.358       .  S
O1285     Eu1305   2.354       .  S
O1286      C1309   1.296       .  A
O1286     Eu1302   2.476       .  S
O1287      C1310   1.291       .  A
O1287     Eu1303   2.460       .  S
O1288      C1311   1.292       .  A
O1288     Eu1304   2.457       .  S
O1289      C1312   1.289       .  A
O1289     Eu1305   2.448       .  S
O1290      C1313   1.288       .  A
O1290     Eu1305   2.437       .  S
O1291      C1314   1.288       .  A
O1291     Eu1304   2.443       .  S
O1292      C1315   1.291       .  A
O1292     Eu1858   2.449       .  S
O1293      C1316   1.290       .  A
O1293     Eu1306   2.458       .  S
O1294      C1315   1.292       .  A
O1294     Eu1304   2.469       .  S
O1295      C1316   1.293       .  A
O1295     Eu1305   2.461       .  S
O1296      C1311   1.291       .  A
O1296     Eu1854   2.459   1_554  S
O1297      C1314   1.293       .  A
O1297     Eu1855   2.463       .  S
O1298      C1313   1.291       .  A
O1298     Eu1303   2.455       .  S
O1299      C1312   1.290       .  A
O1299     Eu1302   2.443       .  S
O1300      C1309   1.288       .  A
O1300     Eu1306   2.445       .  S
O1301      C1310   1.292       .  A
O1301     Eu1306   2.459       .  S
Eu1302     O1848   2.447       .  S
Eu1302     O1835   2.354       .  S
Eu1302     O1320   2.355       .  S
Eu1302     O1860   2.346       .  S
Eu1303     O1849   2.448       .  S
Eu1303     O1829   2.354       .  S
Eu1303     O1307   2.346       .  S
Eu1303     O1870   2.353       .  S
Eu1304     O1318   2.355       .  S
Eu1304     O1308   2.346       .  S
Eu1305     O1307   2.354       .  S
Eu1305     O1320   2.352       .  S
Eu1306     O1844   2.458       .  S
Eu1306     O1307   2.348       .  S
Eu1306     O1870   2.345       .  S
Eu1306     O1320   2.359       .  S
Eu1306     O1860   2.351       .  S
O1308     Eu1854   2.351   1_554  S
O1308     Eu1858   2.354       .  S
C1309      C2042   1.489       .  S
C1310      C2059   1.489       .  S
C1311      C1336   1.488       .  S
C1312      C1353   1.477       .  S
C1313      C1367   1.479       .  S
C1314      C1325   1.478       .  S
C1315      C1437   1.489       .  S
C1316      C1479   1.492       .  S
H1317      O1318   0.970       .  S
O1318     Eu1855   2.350       .  S
O1318     Eu1858   2.343       .  S
H1319      O1320   0.978       .  S
C1321      C1322   1.402       .  A
C1321      C1326   1.397       .  A
C1321      H1328   1.084       .  S
C1322      C1323   1.416       .  A
C1323      C1324   1.398       .  A
C1323      N1330   1.427       .  S
C1324      C1325   1.400       .  A
C1324      H1329   1.084       .  S
C1325      C1326   1.413       .  A
C1326      N1327   1.427       .  S
N1327      O1331   1.261       .  A
N1327      O1332   1.262       .  A
N1330      O1334   1.261       .  A
N1330      O1333   1.262       .  A
C1335      C1336   1.405       .  A
C1335      C1340   1.399       .  A
C1335      H1342   1.084       .  S
C1336      C1337   1.414       .  A
C1337      C1338   1.395       .  A
C1337      N1344   1.424       .  S
C1338      C1339   1.401       .  A
C1338      H1343   1.084       .  S
C1339      C1340   1.417       .  A
C1340      N1341   1.428       .  S
N1341      O1345   1.262       .  A
N1341      O1346   1.262       .  A
N1344      O1348   1.261       .  A
N1344      O1347   1.262       .  A
C1349      C1350   1.402       .  A
C1349      C1354   1.395       .  A
C1349      H1356   1.079       .  S
C1350      C1351   1.412       .  A
C1351      C1352   1.395       .  A
C1351      N1358   1.428       .  S
C1352      C1353   1.404       .  A
C1352      H1357   1.084       .  S
C1353      C1354   1.412       .  A
C1354      N1355   1.429       .  S
N1355      O1359   1.262       .  A
N1355      O1360   1.262       .  A
N1358      O1362   1.262       .  A
N1358      O1361   1.262       .  A
C1363      C1364   1.409       .  A
C1363      C1368   1.403       .  A
C1363      H1370   1.080       .  S
C1364      C1365   1.419       .  A
C1365      C1366   1.396       .  A
C1365      N1372   1.428       .  S
C1366      C1367   1.396       .  A
C1366      H1371   1.079       .  S
C1367      C1368   1.409       .  A
C1368      N1369   1.431       .  S
N1369      O1373   1.261       .  A
N1369      O1374   1.263       .  A
N1372      O1376   1.262       .  A
N1372      O1375   1.262       .  A
C1377      C1378   1.404       .  A
C1377      C1382   1.397       .  A
C1377      H1384   1.084       .  S
C1378      C1379   1.416       .  A
C1379      C1380   1.396       .  A
C1379      N1386   1.425       .  S
C1380      C1381   1.402       .  A
C1380      H1385   1.084       .  S
C1381      C1382   1.418       .  A
C1382      N1383   1.428       .  S
N1383      O1387   1.262       .  A
N1383      O1388   1.262       .  A
N1386      O1390   1.261       .  A
N1386      O1389   1.262       .  A
C1391      C1392   1.404       .  A
C1391      C1396   1.400       .  A
C1391      H1398   1.084       .  S
C1392      C1393   1.416       .  A
C1393      C1394   1.397       .  A
C1393      N1400   1.425       .  S
C1394      C1395   1.401       .  A
C1394      H1399   1.082       .  S
C1395      C1396   1.418       .  A
C1396      N1397   1.428       .  S
N1397      O1401   1.262       .  A
N1397      O1402   1.262       .  A
N1400      O1404   1.261       .  A
N1400      O1403   1.262       .  A
C1405      C1406   1.402       .  A
C1405      C1410   1.399       .  A
C1405      H1412   1.084       .  S
C1406      C1407   1.417       .  A
C1407      C1408   1.397       .  A
C1407      N1414   1.426       .  S
C1408      C1409   1.401       .  A
C1408      H1413   1.084       .  S
C1409      C1410   1.418       .  A
C1410      N1411   1.428       .  S
N1411      O1415   1.262       .  A
N1411      O1416   1.262       .  A
N1414      O1418   1.261       .  A
N1414      O1417   1.262       .  A
C1419      C1420   1.405       .  A
C1419      C1424   1.399       .  A
C1419      H1426   1.084       .  S
C1420      C1421   1.418       .  A
C1421      C1422   1.399       .  A
C1421      N1428   1.427       .  S
C1422      C1423   1.404       .  A
C1422      H1427   1.084       .  S
C1423      C1424   1.416       .  A
C1424      N1425   1.428       .  S
N1425      O1429   1.262       .  A
N1425      O1430   1.262       .  A
N1428      O1432   1.261       .  A
N1428      O1431   1.262       .  A
C1433      C1434   1.406       .  A
C1433      C1438   1.398       .  A
C1433      H1440   1.084       .  S
C1434      C1435   1.416       .  A
C1435      C1436   1.400       .  A
C1435      N1442   1.429       .  S
C1436      C1437   1.407       .  A
C1436      H1441   1.084       .  S
C1437      C1438   1.413       .  A
C1438      N1439   1.428       .  S
N1439      O1443   1.261       .  A
N1439      O1444   1.262       .  A
N1442      O1446   1.262       .  A
N1442      O1445   1.262       .  A
C1447      C1448   1.405       .  A
C1447      C1452   1.399       .  A
C1447      H1454   1.084       .  S
C1448      C1449   1.416       .  A
C1449      C1450   1.398       .  A
C1449      N1456   1.428       .  S
C1450      C1451   1.404       .  A
C1450      H1455   1.084       .  S
C1451      C1452   1.417       .  A
C1452      N1453   1.429       .  S
N1453      O1457   1.262       .  A
N1453      O1458   1.262       .  A
N1456      O1460   1.262       .  A
N1456      O1459   1.262       .  A
C1461      C1462   1.406       .  A
C1461      C1466   1.402       .  A
C1461      H1468   1.084       .  S
C1462      C1463   1.416       .  A
C1463      C1464   1.402       .  A
C1463      N1470   1.428       .  S
C1464      C1465   1.406       .  A
C1464      H1469   1.084       .  S
C1465      C1466   1.417       .  A
C1466      N1467   1.428       .  S
N1467      O1471   1.262       .  A
N1467      O1472   1.262       .  A
N1470      O1474   1.262       .  A
N1470      O1473   1.262       .  A
C1475      C1476   1.407       .  A
C1475      C1480   1.401       .  A
C1475      H1482   1.084       .  S
C1476      C1477   1.416       .  A
C1477      C1478   1.398       .  A
C1477      N1484   1.427       .  S
C1478      C1479   1.404       .  A
C1478      H1483   1.083       .  S
C1479      C1480   1.417       .  A
C1480      N1481   1.429       .  S
N1481      O1485   1.262       .  A
N1481      O1486   1.262       .  A
N1484      O1488   1.261       .  A
N1484      O1487   1.262       .  A
C1489      C2042   1.403       .  A
C1489      C1494   1.400       .  A
C1489      H1496   1.082       .  S
C1490      C1861   1.493       .  S
C1490      C2041   1.403       .  A
C1490      C1491   1.417   1_554  A
C1491      C1492   1.400       .  A
C1491      N1498   1.426       .  S
C1492      C1493   1.403   1_556  A
C1492      H1497   1.084       .  S
C1493      C2046   1.418       .  A
C1494      C2045   1.417       .  A
C1494      N1495   1.429       .  S
N1495      O1499   1.261       .  A
N1495      O2052   1.262       .  A
N1498      O1502   1.262       .  A
N1498      O2053   1.262       .  A
O1500      N2047   1.262       .  A
O1501      N2050   1.262       .  A
C1503      C2056   1.402       .  A
C1503      C1508   1.395       .  A
C1503      H1510   1.084       .  S
C1504      C2055   1.401   1_554  A
C1504      C1505   1.417       .  A
C1505      C1506   1.399       .  A
C1505      N1512   1.429       .  S
C1506      C1507   1.406       .  A
C1506      H1511   1.084       .  S
C1507      C1862   1.491       .  S
C1507      C2060   1.417   1_554  A
C1508      C2059   1.413       .  A
C1508      N1509   1.424       .  S
N1509      O1513   1.261       .  A
N1509      O2066   1.262       .  A
N1512      O1516   1.262       .  A
N1512      O2067   1.261       .  A
O1514      N2061   1.262   1_554  A
O1515      N2064   1.262       .  A
C1517      C2070   1.403       .  A
C1517      C1522   1.401       .  A
C1517      H1524   1.084       .  S
C1518      C1831   1.491       .  S
C1518      C2069   1.403   1_556  A
C1518      C1519   1.418       .  A
C1519      C1520   1.401       .  A
C1519      N1526   1.428       .  S
C1520      C1521   1.403       .  A
C1520      H1525   1.084       .  S
C1521      C2074   1.417   1_556  A
C1522      C2073   1.415       .  A
C1522      N1523   1.427       .  S
N1523      O1527   1.262       .  A
N1523      O1528   1.262       .  A
N1526      O1530   1.262       .  A
N1526      O1529   1.262       .  A
C1531      C1532   1.405       .  A
C1531      C1536   1.399       .  A
C1531      H1538   1.084       .  S
C1532      C1830   1.495   1_554  S
C1532      C2085   1.420   1_554  A
C1533      C2084   1.419       .  A
C1533      C1534   1.398       .  A
C1533      N1540   1.428       .  S
C1534      C2087   1.405       .  A
C1534      H1539   1.084       .  S
C1535      C2086   1.404   1_554  A
C1535      C1536   1.418       .  A
C1536      N1537   1.428       .  S
N1537      O1541   1.261       .  A
N1537      O2094   1.262   1_554  A
N1540      O1544   1.262       .  A
N1540      O2095   1.262       .  A
O1542      N2089   1.262       .  A
O1543      N2092   1.262   1_554  A
C1545      C1550   1.397       .  A
C1545      H1552   1.084       .  S
C1546      C1547   1.417       .  A
C1547      C1548   1.403       .  A
C1547      N1554   1.428       .  S
C1548      C1549   1.402       .  A
C1548      H1553   1.084       .  S
C1550      N1551   1.428       .  S
N1551      O1556   1.262       .  A
N1554      O1557   1.262       .  A
C1559      C1560   1.403       .  A
C1559      C1564   1.400       .  A
C1559      H1566   1.084       .  S
C1561      C1562   1.398       .  A
C1561      N1568   1.428   1_565  S
C1562      H1567   1.084   1_565  S
C1563      C1564   1.416       .  A
C1564      N1565   1.428       .  S
N1565      O1570   1.262       .  A
N1568      O1571   1.262   1_545  A
C1573      C1578   1.399       .  A
C1573      H1580   1.084       .  S
C1574      C1575   1.418       .  A
C1575      C1576   1.399       .  A
C1575      N1582   1.430       .  S
C1576      C1577   1.402       .  A
C1576      H1581   1.080       .  S
C1578      N1579   1.427       .  S
N1579      O1583   1.261   1_545  A
N1582      O1586   1.262       .  A
C1587      C1588   1.404       .  A
C1587      C1592   1.397       .  A
C1587      H1594   1.084       .  S
C1589      C1590   1.398       .  A
C1589      N1596   1.428       .  S
C1590      H1595   1.084       .  S
C1591      C1592   1.418       .  A
C1592      N1593   1.429       .  S
N1593      O1597   1.262       .  A
N1596      O1600   1.262       .  A
C1601      C3810   1.403       .  A
C1601      C1606   1.395       .  A
C1601      H1608   1.084       .  S
C1602      C3809   1.404       .  A
C1602      C1603   1.414   1_455  A
C1603      C1604   1.395       .  A
C1603      N1610   1.428       .  S
C1604      C1605   1.404   1_655  A
C1604      H1609   1.084       .  S
C1605      C3814   1.414       .  A
C1606      C3813   1.415       .  A
C1606      N1607   1.428       .  S
N1607      O1611   1.262       .  A
N1607      O1612   1.262       .  A
N1610      O1614   1.262       .  A
N1610      O1613   1.262       .  A
C1615      C1616   1.403   1_455  A
C1615      C1620   1.399       .  A
C1615      H1622   1.084       .  S
C1616      C3825   1.415       .  A
C1617      C3824   1.416       .  A
C1617      C1618   1.401       .  A
C1617      N1624   1.429       .  S
C1618      C3827   1.404       .  A
C1618      H1623   1.084       .  S
C1619      C3826   1.403   1_455  A
C1619      C1620   1.414       .  A
C1620      N1621   1.428       .  S
N1621      O1625   1.262       .  A
N1621      O1626   1.262       .  A
N1624      O1628   1.262       .  A
N1624      O1627   1.262       .  A
C1629      C1630   1.392   1_455  A
C1629      C1634   1.390       .  A
C1629      H1636   1.079       .  S
C1630      C3839   1.407       .  A
C1631      C3838   1.410       .  A
C1631      C1632   1.400       .  A
C1631      N1638   1.430       .  S
C1632      C3841   1.409       .  A
C1632      H1637   1.084       .  S
C1633      C3840   1.409       .  A
C1633      C1634   1.414   1_655  A
C1634      N1635   1.426       .  S
N1635      O1639   1.261       .  A
N1635      O1640   1.262       .  A
N1638      O1642   1.262       .  A
N1638      O1641   1.262       .  A
C1643      C1644   1.403   1_455  A
C1643      C1648   1.395       .  A
C1643      H1650   1.082       .  S
C1644      C3853   1.414       .  A
C1645      C3852   1.410       .  A
C1645      C1646   1.394       .  A
C1645      N1652   1.426       .  S
C1646      C3855   1.398       .  A
C1646      H1651   1.077       .  S
C1647      C3854   1.406   1_455  A
C1647      C1648   1.414       .  A
C1648      N1649   1.428       .  S
N1649      O1653   1.262       .  A
N1649      O1654   1.262       .  A
N1652      O1656   1.262       .  A
N1652      O1655   1.261       .  A
O1657      C1668   1.288   1_655  A
O1657     Eu1693   2.446       .  S
O1658      C1669   1.294       .  A
O1658     Eu1692   2.462       .  S
O1659      C1670   1.288       .  A
O1659     Eu1665   2.448   1_455  S
O1660      C1671   1.288       .  A
O1660     Eu3873   2.447       .  S
O1661      C1671   1.295       .  A
O1661     Eu1695   2.469       .  S
O1662      C1670   1.294       .  A
O1662     Eu1694   2.467       .  S
O1663      C1669   1.289       .  A
O1664      C1668   1.291       .  A
O1664     Eu1665   2.452   1_455  S
Eu1665     O3868   2.449       .  S
Eu1665     O3883   2.352       .  S
Eu1665     O1667   2.351   1_655  S
Eu1665     O3322   2.354       .  S
O1666     Eu3321   2.359   1_556  S
O1666     Eu3900   2.356       .  S
O1667     Eu1693   2.352   1_455  S
O1667     Eu1694   2.346       .  S
C1668      C2196   1.483       .  S
C1669      C2154   1.483       .  S
C1670      C2087   1.492       .  S
C1671      C2056   1.488       .  S
H1672      O1673   0.962       .  S
O1673     Eu1692   2.357   1_455  S
H1674      O1675   0.962       .  S
O1675     Eu3873   2.352       .  S
O1675     Eu3901   2.352       .  S
O1675     Eu1695   2.346       .  S
O1676      C1699   1.287       .  A
O1677      C1700   1.291       .  A
O1678      C1701   1.289       .  A
O1679      C1702   1.292       .  A
O1680      C1703   1.293       .  A
O1680     Eu1695   2.462       .  S
O1681      C1704   1.291       .  A
O1681     Eu1694   2.451       .  S
O1682      C1705   1.295       .  A
O1682     Eu1696   2.473       .  S
O1683      C1706   1.295       .  A
O1683     Eu3904   2.471       .  S
O1684      C1705   1.292       .  A
O1685      C1706   1.290       .  A
O1686      C1701   1.295       .  A
O1686     Eu1692   2.472   1_455  S
O1687      C1704   1.290       .  A
O1687     Eu1693   2.459   1_455  S
O1688      C1703   1.289       .  A
O1688     Eu3901   2.450       .  S
O1689      C1702   1.297       .  A
O1689     Eu3900   2.486       .  S
O1690      C1699   1.295       .  A
O1691      C1700   1.292   1_655  A
O1691     Eu1696   2.462   1_655  S
Eu1692     O3897   2.473       .  S
Eu1692     O3874   2.350       .  S
Eu1692     O2814   2.354       .  S
Eu1693     O3896   2.454       .  S
Eu1693     O3883   2.358       .  S
Eu1693     O2801   2.348       .  S
Eu1696     O3891   2.484   1_455  S
Eu1696     O3905   2.349   1_455  S
Eu1696     O1708   2.362       .  S
Eu1696     O3366   2.349   1_455  S
O1697     Eu2797   2.346       .  S
O1697     Eu3904   2.347       .  S
C1699      C2171   1.486       .  S
C1700      C2185   1.476       .  S
C1701      C2112   1.491       .  S
C1702      C2101   1.491       .  S
C1703      C2140   1.484       .  S
C1704      C2129   1.483       .  S
C1705      C2073   1.490       .  S
C1706      C2045   1.491       .  S
H1707      O1708   0.964       .  S
H1709      O1710   0.960       .  S
O1710     Eu2796   2.356       .  S
O1710     Eu3352   2.355   1_556  S
O1711      C1722   1.289       .  A
O1711     Eu1747   2.454       .  S
O1712      C1723   1.291       .  A
O1712     Eu1746   2.450       .  S
O1713      C1724   1.287       .  A
O1713     Eu1719   2.440   1_455  S
O1714      C1725   1.290       .  A
O1714     Eu3927   2.456       .  S
O1715      C1725   1.293       .  A
O1715     Eu1749   2.461       .  S
O1716      C1724   1.296       .  A
O1716     Eu1748   2.473       .  S
O1717      C1723   1.288       .  A
O1717     Eu1719   2.449       .  S
O1718      C1722   1.290       .  A
O1718     Eu1719   2.444   1_455  S
Eu1719     O3922   2.460       .  S
Eu1719     O3937   2.345       .  S
Eu1719     O1721   2.351   1_655  S
Eu1719     O3928   2.352       .  S
Eu1719     O1727   2.356   1_655  S
O1720     Eu3927   2.354       .  S
O1720     Eu1749   2.358       .  S
O1720     Eu3954   2.350       .  S
O1721     Eu1747   2.343       .  S
O1721     Eu1748   2.355       .  S
C1722      C2199   1.485       .  S
C1723      C2157   1.480       .  S
C1724      C1961   1.485       .  S
C1725      C1930   1.489       .  S
H1726      O1727   0.967       .  S
O1727     Eu1748   2.353       .  S
O1727     Eu1746   2.347   1_455  S
H1728      O1729   0.965       .  S
O1729     Eu3927   2.351       .  S
O1729     Eu3955   2.351       .  S
O1729     Eu1749   2.361       .  S
O1730      C1753   1.288       .  A
O1730     Eu1746   2.445       .  S
O1731      C1754   1.287       .  A
O1731     Eu1747   2.435   1_655  S
O1732      C1755   1.294       .  A
O1732     Eu1748   2.460       .  S
O1733      C1756   1.289       .  A
O1733     Eu1749   2.451       .  S
O1734      C1757   1.292       .  A
O1734     Eu1749   2.451       .  S
O1735      C1758   1.290       .  A
O1735     Eu1748   2.453       .  S
O1736      C1759   1.289       .  A
O1736     Eu1750   2.456   1_455  S
O1737      C1760   1.288       .  A
O1737     Eu3958   2.447       .  S
O1738      C1759   1.298       .  A
O1738     Eu1748   2.489       .  S
O1739      C1760   1.297       .  A
O1739     Eu1749   2.485       .  S
O1740      C1755   1.291       .  A
O1740     Eu1746   2.463   1_455  S
O1741      C1758   1.293       .  A
O1741     Eu1747   2.461       .  S
O1742      C1757   1.291       .  A
O1742     Eu3955   2.460       .  S
O1743      C1756   1.294       .  A
O1743     Eu3954   2.467       .  S
O1744      C1753   1.293       .  A
O1744     Eu1750   2.462       .  S
O1745      C1754   1.290       .  A
O1745     Eu1750   2.452       .  S
Eu1746     O3951   2.454       .  S
Eu1746     O3928   2.352       .  S
Eu1746     O3972   2.360       .  S
Eu1746     O1752   2.355   1_655  S
Eu1747     O3950   2.464   1_455  S
Eu1747     O3937   2.350   1_455  S
Eu1747     O3959   2.351   1_455  S
Eu1747     O1762   2.356       .  S
Eu1748     O1762   2.350       .  S
Eu1748     O1752   2.347       .  S
Eu1749     O1751   2.337       .  S
Eu1749     O1764   2.350       .  S
Eu1750     O3945   2.451       .  S
Eu1750     O3959   2.351       .  S
Eu1750     O1762   2.351   1_655  S
Eu1750     O3972   2.354       .  S
Eu1750     O1752   2.351   1_655  S
O1751     Eu3955   2.355       .  S
O1751     Eu3958   2.350       .  S
C1753      C2168   1.487   1_655  S
C1754      C2182   1.466       .  S
C1755      C2017   1.491       .  S
C1756      C2028   1.490       .  S
C1757      C1986   1.484       .  S
C1758      C2000   1.487       .  S
C1759      C1972   1.501       .  S
C1760      C1947   1.491       .  S
H1761      O1762   0.965       .  S
H1763      O1764   0.964       .  S
O1764     Eu3954   2.359       .  S
O1764     Eu3958   2.348       .  S
O1765      C1776   1.294       .  A
O1765     Eu1801   2.467       .  S
O1766      C1777   1.292       .  A
O1766     Eu1800   2.455       .  S
O1767      C1778   1.291       .  A
O1767     Eu1773   2.452   1_565  S
O1768      C1779   1.289       .  A
O1769      C1779   1.291       .  A
O1769     Eu1803   2.448       .  S
O1770      C1778   1.290       .  A
O1770     Eu1802   2.456       .  S
O1771      C1777   1.289       .  A
O1771     Eu1773   2.455       .  S
O1772      C1776   1.286       .  A
O1772     Eu1773   2.437       .  S
Eu1773     O1775   2.352   1_545  S
Eu1773     O1781   2.351   1_545  S
O1774     Eu1803   2.355       .  S
O1775     Eu1801   2.350   1_565  S
O1775     Eu1802   2.352       .  S
C1778      C1891   1.491       .  S
C1779      C1874   1.473       .  S
H1780      O1781   0.965       .  S
O1781     Eu1802   2.360       .  S
O1781     Eu1800   2.349   1_565  S
H1782      O1783   0.968       .  S
O1783     Eu1803   2.359       .  S
O1784      C1807   1.287       .  A
O1784     Eu1800   2.439       .  S
O1785      C1808   1.292       .  A
O1785     Eu1801   2.467       .  S
O1786      C1809   1.290       .  A
O1786     Eu1802   2.460       .  S
O1787      C1810   1.289       .  A
O1787     Eu1803   2.449       .  S
O1788      C1811   1.289       .  A
O1788     Eu1803   2.452       .  S
O1789      C1812   1.291       .  A
O1789     Eu1802   2.458       .  S
O1790      C1813   1.287       .  A
O1790     Eu1804   2.441   1_565  S
O1791      C1814   1.289       .  A
O1792      C1813   1.292       .  A
O1792     Eu1802   2.455       .  S
O1793      C1814   1.294       .  A
O1793     Eu1803   2.470       .  S
O1794      C1809   1.297       .  A
O1794     Eu1800   2.482   1_565  S
O1795      C1812   1.295       .  A
O1795     Eu1801   2.475   1_565  S
O1796      C1811   1.295       .  A
O1797      C1810   1.295       .  A
O1798      C1807   1.298       .  A
O1798     Eu1804   2.487       .  S
O1799      C1808   1.295       .  A
O1799     Eu1804   2.474       .  S
Eu1800     O1806   2.349   1_545  S
Eu1801     O1816   2.357   1_545  S
Eu1802     O1816   2.356       .  S
Eu1802     O1806   2.347       .  S
Eu1803     O1805   2.342       .  S
Eu1803     O1818   2.348       .  S
Eu1804     O1816   2.361   1_545  S
Eu1804     O1806   2.349   1_545  S
C1809      C1975   1.501       .  S
C1810      C1958   1.488       .  S
C1811      C1933   1.490       .  S
C1812      C1944   1.491       .  S
C1813      C1902   1.484       .  S
C1814      C1916   1.487       .  S
H1815      O1816   0.964       .  S
H1817      O1818   0.964       .  S
O1819      C1830   1.287   1_554  A
O1819     Eu1855   2.445       .  S
O1820      C1831   1.297       .  A
O1820     Eu1854   2.481       .  S
O1821      C1832   1.289       .  A
O1822      C1833   1.291       .  A
O1822     Eu1827   2.449       .  S
O1823      C1833   1.293       .  A
O1823     Eu1857   2.477       .  S
O1824      C1832   1.294       .  A
O1824     Eu1856   2.468       .  S
O1825      C1831   1.290       .  A
O1825     Eu1827   2.454       .  S
O1826      C1830   1.296       .  A
O1826     Eu1827   2.479       .  S
Eu1827     O1837   2.345       .  S
Eu1827     O1828   2.355       .  S
O1828     Eu1857   2.346       .  S
O1828     Eu1854   2.351       .  S
O1829     Eu1856   2.355       .  S
C1832      C2003   1.488       .  S
C1833      C2014   1.492       .  S
H1834      O1835   0.970       .  S
O1835     Eu1856   2.346       .  S
H1836      O1837   0.970       .  S
O1837     Eu1855   2.354   1_556  S
O1837     Eu1857   2.357       .  S
O1838      C1861   1.296       .  A
O1838     Eu1854   2.478   1_554  S
O1839      C1862   1.288       .  A
O1839     Eu1855   2.450       .  S
O1840      C1863   1.295       .  A
O1840     Eu1856   2.467       .  S
O1841      C1864   1.288       .  A
O1841     Eu1857   2.448       .  S
O1842      C1865   1.286       .  A
O1842     Eu1857   2.427       .  S
O1843      C1866   1.289       .  A
O1843     Eu1856   2.450       .  S
O1844      C1867   1.292       .  A
O1845      C1868   1.288       .  A
O1845     Eu1858   2.446   1_556  S
O1846      C1867   1.290       .  A
O1846     Eu1856   2.457       .  S
O1847      C1868   1.294       .  A
O1847     Eu1857   2.465       .  S
O1848      C1863   1.288       .  A
O1849      C1866   1.291       .  A
O1850      C1865   1.292       .  A
O1850     Eu1855   2.457   1_556  S
O1851      C1864   1.292       .  A
O1851     Eu1854   2.451       .  S
O1852      C1861   1.290       .  A
O1852     Eu1858   2.457       .  S
O1853      C1862   1.294       .  A
O1853     Eu1858   2.467       .  S
Eu1854     O1872   2.351       .  S
Eu1855     O1859   2.351   1_554  S
Eu1856     O1870   2.363       .  S
Eu1856     O1860   2.342       .  S
Eu1857     O1859   2.353       .  S
Eu1857     O1872   2.347       .  S
Eu1858     O1859   2.347   1_554  S
Eu1858     O1872   2.355   1_554  S
C1863      C1888   1.492       .  S
C1864      C1905   1.484       .  S
C1865      C1919   1.477       .  S
C1866      C1877   1.472       .  S
C1867      C1989   1.486       .  S
C1868      C2031   1.489       .  S
H1869      O1870   0.971       .  S
H1871      O1872   0.977       .  S
C1873      C1874   1.402       .  A
C1873      C1878   1.394       .  A
C1873      H1880   1.084       .  S
C1874      C1875   1.412       .  A
C1875      C1876   1.395       .  A
C1875      N1882   1.429       .  S
C1876      C1877   1.402       .  A
C1876      H1881   1.082       .  S
C1877      C1878   1.411       .  A
C1878      N1879   1.428       .  S
N1879      O1883   1.262       .  A
N1879      O1884   1.262       .  A
N1882      O1886   1.262       .  A
N1882      O1885   1.262       .  A
C1887      C1888   1.403       .  A
C1887      C1892   1.395       .  A
C1887      H1894   1.084       .  S
C1888      C1889   1.418       .  A
C1889      C1890   1.399       .  A
C1889      N1896   1.428       .  S
C1890      C1891   1.405       .  A
C1890      H1895   1.084       .  S
C1891      C1892   1.414       .  A
C1892      N1893   1.424       .  S
N1893      O1897   1.260       .  A
N1893      O1898   1.262       .  A
N1896      O1900   1.261       .  A
N1896      O1899   1.262       .  A
C1901      C1902   1.404       .  A
C1901      C1906   1.394       .  A
C1901      H1908   1.083       .  S
C1902      C1903   1.415       .  A
C1903      C1904   1.395       .  A
C1903      N1910   1.429       .  S
C1904      C1905   1.405       .  A
C1904      H1909   1.084       .  S
C1905      C1906   1.415       .  A
C1906      N1907   1.429       .  S
N1907      O1911   1.261       .  A
N1907      O1912   1.261       .  A
N1910      O1914   1.262       .  A
N1910      O1913   1.262       .  A
C1915      C1916   1.407       .  A
C1915      C1920   1.400       .  A
C1915      H1922   1.080       .  S
C1916      C1917   1.417       .  A
C1917      C1918   1.394       .  A
C1917      N1924   1.428       .  S
C1918      C1919   1.396       .  A
C1918      H1923   1.078       .  S
C1919      C1920   1.411       .  A
C1920      N1921   1.429       .  S
N1921      O1925   1.262       .  A
N1921      O1926   1.262       .  A
N1924      O1928   1.262       .  A
N1924      O1927   1.262       .  A
C1929      C1930   1.404       .  A
C1929      C1934   1.399       .  A
C1929      H1936   1.084       .  S
C1930      C1931   1.415       .  A
C1931      C1932   1.397       .  A
C1931      N1938   1.426       .  S
C1932      C1933   1.403       .  A
C1932      H1937   1.084       .  S
C1933      C1934   1.417       .  A
C1934      N1935   1.428       .  S
N1935      O1939   1.262       .  A
N1935      O1940   1.262       .  A
N1938      O1942   1.261       .  A
N1938      O1941   1.262       .  A
C1943      C1944   1.405       .  A
C1943      C1948   1.403       .  A
C1943      H1950   1.084       .  S
C1944      C1945   1.415       .  A
C1945      C1946   1.399       .  A
C1945      N1952   1.427       .  S
C1946      C1947   1.400       .  A
C1946      H1951   1.080       .  S
C1947      C1948   1.417       .  A
C1948      N1949   1.428       .  S
N1949      O1953   1.262       .  A
N1949      O1954   1.262       .  A
N1952      O1956   1.261       .  A
N1952      O1955   1.262       .  A
C1957      C1958   1.405       .  A
C1957      C1962   1.400       .  A
C1957      H1964   1.084       .  S
C1958      C1959   1.416       .  A
C1959      C1960   1.395       .  A
C1959      N1966   1.426       .  S
C1960      C1961   1.400       .  A
C1960      H1965   1.084       .  S
C1961      C1962   1.417       .  A
C1962      N1963   1.429       .  S
N1963      O1967   1.262       .  A
N1963      O1968   1.262       .  A
N1966      O1970   1.261       .  A
N1966      O1969   1.262       .  A
C1971      C1972   1.405       .  A
C1971      C1976   1.402       .  A
C1971      H1978   1.084       .  S
C1972      C1973   1.421       .  A
C1973      C1974   1.402       .  A
C1973      N1980   1.428       .  S
C1974      C1975   1.405       .  A
C1974      H1979   1.084       .  S
C1975      C1976   1.420       .  A
C1976      N1977   1.428       .  S
N1977      O1981   1.262       .  A
N1977      O1982   1.260       .  A
N1980      O1984   1.261       .  A
N1980      O1983   1.262       .  A
C1985      C1986   1.405       .  A
C1985      C1990   1.399       .  A
C1985      H1992   1.084       .  S
C1986      C1987   1.413       .  A
C1987      C1988   1.396       .  A
C1987      N1994   1.428       .  S
C1988      C1989   1.405       .  A
C1988      H1993   1.084       .  S
C1989      C1990   1.415       .  A
C1990      N1991   1.428       .  S
N1991      O1995   1.262       .  A
N1991      O1996   1.262       .  A
N1994      O1998   1.261       .  A
N1994      O1997   1.262       .  A
C1999      C2000   1.403       .  A
C1999      C2004   1.397       .  A
C1999      H2006   1.081       .  S
C2000      C2001   1.415       .  A
C2001      C2002   1.399       .  A
C2001      N2008   1.428       .  S
C2002      C2003   1.405       .  A
C2002      H2007   1.084       .  S
C2003      C2004   1.417       .  A
C2004      N2005   1.429       .  S
N2005      O2009   1.262       .  A
N2005      O2010   1.262       .  A
N2008      O2012   1.262       .  A
N2008      O2011   1.262       .  A
C2013      C2014   1.407       .  A
C2013      C2018   1.401       .  A
C2013      H2020   1.084       .  S
C2014      C2015   1.413       .  A
C2015      C2016   1.397       .  A
C2015      N2022   1.425       .  S
C2016      C2017   1.404       .  A
C2016      H2021   1.084       .  S
C2017      C2018   1.416       .  A
C2018      N2019   1.429       .  S
N2019      O2023   1.262       .  A
N2019      O2024   1.262       .  A
N2022      O2026   1.261       .  A
N2022      O2025   1.262       .  A
C2027      C2028   1.405       .  A
C2027      C2032   1.399       .  A
C2027      H2034   1.084       .  S
C2028      C2029   1.417       .  A
C2029      C2030   1.395       .  A
C2029      N2036   1.427       .  S
C2030      C2031   1.403       .  A
C2030      H2035   1.083       .  S
C2031      C2032   1.417       .  A
C2032      N2033   1.429       .  S
N2033      O2037   1.262       .  A
N2033      O2038   1.261       .  A
N2036      O2040   1.261       .  A
N2036      O2039   1.262       .  A
C2041      C2046   1.401       .  A
C2041      H2048   1.079       .  S
C2042      C2043   1.416       .  A
C2043      C2044   1.398       .  A
C2043      N2050   1.428       .  S
C2044      C2045   1.405       .  A
C2044      H2049   1.084       .  S
C2046      N2047   1.430       .  S
N2047      O2051   1.261       .  A
N2050      O2054   1.262       .  A
C2055      C2060   1.395       .  A
C2055      H2062   1.084       .  S
C2056      C2057   1.418       .  A
C2057      C2058   1.401       .  A
C2057      N2064   1.429       .  S
C2058      C2059   1.405       .  A
C2058      H2063   1.084       .  S
C2060      N2061   1.426       .  S
N2061      O2065   1.260       .  A
N2064      O2068   1.262       .  A
C2069      C2074   1.400       .  A
C2069      H2076   1.084       .  S
C2070      C2071   1.417       .  A
C2071      C2072   1.401       .  A
C2071      N2078   1.429       .  S
C2072      C2073   1.403       .  A
C2072      H2077   1.084       .  S
C2074      N2075   1.427       .  S
N2075      O2079   1.261       .  A
N2075      O2080   1.262       .  A
N2078      O2082   1.262       .  A
N2078      O2081   1.262       .  A
C2083      C2084   1.405       .  A
C2083      C2088   1.397       .  A
C2083      H2090   1.084       .  S
C2085      C2086   1.398       .  A
C2085      N2092   1.429       .  S
C2086      H2091   1.083       .  S
C2087      C2088   1.417       .  A
C2088      N2089   1.428       .  S
N2089      O2093   1.262       .  A
N2092      O2096   1.262       .  A
C2097      C2102   1.402       .  A
C2097      H2104   1.084       .  S
C2098      C2099   1.416       .  A
C2099      C2100   1.403       .  A
C2099      N2106   1.428       .  S
C2100      C2101   1.403       .  A
C2100      H2105   1.084       .  S
C2102      N2103   1.428       .  S
N2103      O2108   1.262       .  A
N2106      O2109   1.262       .  A
C2111      C2112   1.404       .  A
C2111      C2116   1.399       .  A
C2111      H2118   1.083       .  S
C2113      C2114   1.399       .  A
C2113      N2120   1.427       .  S
C2114      H2119   1.084       .  S
C2115      C2116   1.418       .  A
C2116      N2117   1.429       .  S
N2117      O2122   1.262       .  A
N2120      O2123   1.262   1_545  A
C2125      C2130   1.398       .  A
C2125      H2132   1.084       .  S
C2126      C2127   1.417       .  A
C2127      C2128   1.399       .  A
C2127      N2134   1.428       .  S
C2128      C2129   1.403       .  A
C2128      H2133   1.084       .  S
C2130      N2131   1.429       .  S
N2131      O2135   1.261       .  A
N2134      O2138   1.262       .  A
C2139      C2140   1.403       .  A
C2139      C2144   1.398       .  A
C2139      H2146   1.084       .  S
C2141      C2142   1.396       .  A
C2141      N2148   1.429       .  S
C2142      H2147   1.084       .  S
C2143      C2144   1.415       .  A
C2144      N2145   1.428       .  S
N2145      O2149   1.262       .  A
N2148      O2152   1.262       .  A
C2153      C4362   1.404       .  A
C2153      C2158   1.397       .  A
C2153      H2160   1.084       .  S
C2154      C4361   1.403   1_655  A
C2154      C2155   1.415       .  A
C2155      C2156   1.396       .  A
C2155      N2162   1.426       .  S
C2156      C2157   1.403       .  A
C2156      H2161   1.084       .  S
C2157      C4366   1.413   1_655  A
C2158      C4365   1.415       .  A
C2158      N2159   1.428       .  S
N2159      O2163   1.262       .  A
N2159      O2164   1.262       .  A
N2162      O2166   1.262       .  A
N2162      O2165   1.262       .  A
C2167      C2168   1.404       .  A
C2167      C2172   1.396       .  A
C2167      H2174   1.084       .  S
C2168      C4377   1.417   1_455  A
C2169      C4376   1.417       .  A
C2169      C2170   1.401       .  A
C2169      N2176   1.429       .  S
C2170      C4379   1.405       .  A
C2170      H2175   1.084       .  S
C2171      C4378   1.403   1_455  A
C2171      C2172   1.417       .  A
C2172      N2173   1.429       .  S
N2173      O2177   1.262       .  A
N2173      O2178   1.262   1_455  A
N2176      O2180   1.262       .  A
N2176      O2179   1.262       .  A
C2181      C2182   1.394   1_455  A
C2181      C2186   1.394       .  A
C2181      H2188   1.082       .  S
C2182      C4391   1.407       .  A
C2183      C4390   1.406       .  A
C2183      C2184   1.403       .  A
C2183      N2190   1.428       .  S
C2184      C4393   1.409       .  A
C2184      H2189   1.084       .  S
C2185      C4392   1.406   1_455  A
C2185      C2186   1.412       .  A
C2186      N2187   1.426       .  S
N2187      O2191   1.260       .  A
N2187      O2192   1.262       .  A
N2190      O2194   1.261       .  A
N2190      O2193   1.262       .  A
C2195      C2196   1.404       .  A
C2195      C2200   1.396       .  A
C2195      H2202   1.084       .  S
C2196      C4405   1.414   1_455  A
C2197      C4404   1.414       .  A
C2197      C2198   1.396       .  A
C2197      N2204   1.430       .  S
C2198      C4407   1.404       .  A
C2198      H2203   1.080       .  S
C2199      C4406   1.404   1_455  A
C2199      C2200   1.413       .  A
C2200      N2201   1.426       .  S
N2201      O2205   1.261       .  A
N2201      O2206   1.262       .  A
N2204      O2208   1.262       .  A
N2204      O2207   1.262       .  A
O2209      C2220   1.287       .  A
O2209     Eu2245   2.442   1_545  S
O2210      C2221   1.292       .  A
O2210     Eu2244   2.456   1_545  S
O2211      C2222   1.289       .  A
O2211     Eu2217   2.452       .  S
O2212      C2223   1.289       .  A
O2213      C2223   1.293       .  A
O2213     Eu2247   2.460   1_545  S
O2214      C2222   1.294       .  A
O2214     Eu2246   2.474       .  S
O2215      C2221   1.290       .  A
O2215     Eu2769   2.455       .  S
O2216      C2220   1.292       .  A
O2216     Eu2217   2.458   1_554  S
Eu2217     O2767   2.460       .  S
Eu2217     O2219   2.350   1_556  S
Eu2217     O2777   2.352       .  S
O2218     Eu2799   2.351   1_545  S
O2219     Eu2245   2.357   1_545  S
O2219     Eu2246   2.344   1_554  S
C2220      C2748   1.483       .  S
C2221      C2706   1.484       .  S
C2222      C2639   1.484       .  S
C2223      C2608   1.486       .  S
H2224      O2225   0.962       .  S
O2225     Eu2769   2.356       .  S
O2225     Eu2798   2.355   1_545  S
O2225     Eu2244   2.358   1_545  S
H2226      O2227   0.962       .  S
O2227     Eu2247   2.347   1_545  S
O2228      C2251   1.290       .  A
O2228     Eu3348   2.458       .  S
O2229      C2252   1.290       .  A
O2229     Eu3349   2.456       .  S
O2230      C2253   1.288       .  A
O2230     Eu2798   2.444       .  S
O2231      C2254   1.290       .  A
O2231     Eu2799   2.458       .  S
O2232      C2255   1.292   1_565  A
O2232     Eu2247   2.457       .  S
O2233      C2256   1.294       .  A
O2233     Eu2246   2.467   1_554  S
O2234      C2257   1.297       .  A
O2234     Eu2248   2.479       .  S
O2235      C2258   1.297       .  A
O2236      C2257   1.289   1_556  A
O2236     Eu3350   2.451   1_556  S
O2237      C2258   1.288       .  A
O2237     Eu3351   2.445       .  S
O2238      C2253   1.297       .  A
O2238     Eu2244   2.482       .  S
O2239      C2256   1.286       .  A
O2239     Eu2245   2.436   1_545  S
O2240      C2255   1.288       .  A
O2241      C2254   1.298       .  A
O2242      C2251   1.295       .  A
O2242     Eu2800   2.470       .  S
O2243      C2252   1.292       .  A
O2243     Eu2248   2.465       .  S
Eu2244     O3332   2.457       .  S
Eu2244     O3354   2.348       .  S
Eu2245     O3333   2.449       .  S
Eu2245     O3364   2.352       .  S
Eu2246     O2782   2.456   1_545  S
Eu2246     O3340   2.450   1_545  S
Eu2246     O2777   2.351       .  S
Eu2246     O3364   2.359   1_546  S
Eu2246     O3906   2.357   1_545  S
Eu2247     O2783   2.459   1_554  S
Eu2247     O3341   2.452       .  S
Eu2247     O2770   2.354   1_564  S
Eu2247     O3353   2.349       .  S
Eu2247     O3918   2.357   1_554  S
Eu2248     O2794   2.457   1_554  S
Eu2248     O2260   2.354       .  S
Eu2248     O2802   2.351   1_554  S
O2249     Eu3351   2.354       .  S
O2250     Eu3348   2.352       .  S
O2250     Eu3902   2.359       .  S
O2250     Eu2800   2.354       .  S
C2251      C2723   1.486       .  S
C2252      C2737   1.475       .  S
C2253      C2664   1.495       .  S
C2254      C2653   1.496       .  S
C2255      C2692   1.483       .  S
C2256      C2681   1.485       .  S
C2257      C2625   1.493   1_554  S
C2258      C2597   1.491       .  S
H2259      O2260   0.964       .  S
O2260     Eu3349   2.349       .  S
O2260     Eu3350   2.357       .  S
H2261      O2262   0.960       .  S
O2262     Eu3903   2.359       .  S
O2263      C2274   1.288       .  A
O2263     Eu2299   2.448       .  S
O2264      C2275   1.294       .  A
O2264     Eu2298   2.461       .  S
O2265      C2276   1.289       .  A
O2265     Eu2271   2.450       .  S
O2266      C2277   1.293       .  A
O2267      C2277   1.293       .  A
O2267     Eu2301   2.461       .  S
O2268      C2276   1.296       .  A
O2268     Eu2300   2.480       .  S
O2269      C2275   1.288       .  A
O2269     Eu2271   2.448       .  S
O2270      C2274   1.291       .  A
O2270     Eu2271   2.449       .  S
Eu2271     O2273   2.348       .  S
Eu2271     O2279   2.359       .  S
O2272     Eu2301   2.347       .  S
O2273     Eu2299   2.346       .  S
O2273     Eu2300   2.353       .  S
C2274      C2751   1.482       .  S
C2275      C2709   1.484       .  S
C2276      C2513   1.482       .  S
C2277      C2482   1.487       .  S
H2278      O2279   0.967       .  S
O2279     Eu2300   2.360       .  S
O2279     Eu2298   2.358       .  S
H2280      O2281   0.965       .  S
O2281     Eu2301   2.359       .  S
O2282      C2305   1.290       .  A
O2282     Eu2298   2.457       .  S
O2283      C2306   1.287       .  A
O2283     Eu2299   2.434       .  S
O2284      C2307   1.292       .  A
O2284     Eu2300   2.451       .  S
O2285      C2308   1.290       .  A
O2285     Eu2301   2.450       .  S
O2286      C2309   1.292       .  A
O2286     Eu2301   2.453       .  S
O2287      C2310   1.290       .  A
O2287     Eu2300   2.457       .  S
O2288      C2311   1.287       .  A
O2288     Eu2302   2.445       .  S
O2289      C2312   1.289       .  A
O2290      C2311   1.298       .  A
O2290     Eu2300   2.485       .  S
O2291      C2312   1.294       .  A
O2291     Eu2301   2.466       .  S
O2292      C2307   1.293       .  A
O2292     Eu2298   2.472       .  S
O2293      C2310   1.292       .  A
O2293     Eu2299   2.455       .  S
O2294      C2309   1.294       .  A
O2295      C2308   1.292       .  A
O2296      C2305   1.292       .  A
O2296     Eu2302   2.456       .  S
O2297      C2306   1.288       .  A
O2297     Eu2302   2.444       .  S
Eu2298     O2304   2.353       .  S
Eu2299     O2314   2.354       .  S
Eu2300     O2314   2.352       .  S
Eu2300     O2304   2.346       .  S
Eu2301     O2303   2.341       .  S
Eu2301     O2316   2.360       .  S
Eu2302     O2314   2.351       .  S
Eu2302     O2304   2.347       .  S
C2305      C2720   1.484       .  S
C2306      C2734   1.460       .  S
C2307      C2569   1.492       .  S
C2308      C2580   1.480       .  S
C2309      C2538   1.490       .  S
C2310      C2552   1.488       .  S
C2311      C2524   1.496       .  S
C2312      C2499   1.487       .  S
H2313      O2314   0.965       .  S
H2315      O2316   0.964       .  S
O2317      C2328   1.291       .  A
O2317     Eu2353   2.452       .  S
O2318      C2329   1.294       .  A
O2318     Eu2352   2.468       .  S
O2319      C2330   1.292       .  A
O2319     Eu2325   2.462       .  S
O2320      C2331   1.285       .  A
O2320     Eu3429   2.428       .  S
O2321      C2331   1.296       .  A
O2321     Eu2355   2.480       .  S
O2322      C2330   1.289       .  A
O2322     Eu2354   2.451       .  S
O2323      C2329   1.289       .  A
O2323     Eu2325   2.449       .  S
O2324      C2328   1.290       .  A
O2324     Eu2325   2.459       .  S
Eu2325     O3424   2.453       .  S
Eu2325     O3439   2.359       .  S
Eu2325     O2327   2.355       .  S
Eu2325     O3430   2.356       .  S
Eu2325     O2333   2.354       .  S
O2326     Eu3429   2.359       .  S
O2326     Eu2355   2.357       .  S
O2326     Eu3456   2.346   1_545  S
O2327     Eu2353   2.351       .  S
O2327     Eu2354   2.362       .  S
C2328      C3799   1.481       .  S
C2329      C3782   1.482       .  S
C2330      C2443   1.480       .  S
C2331      C2426   1.479       .  S
H2332      O2333   0.964       .  S
O2333     Eu2354   2.354       .  S
O2333     Eu2352   2.349       .  S
H2334      O2335   0.968       .  S
O2335     Eu3429   2.358       .  S
O2335     Eu3457   2.350       .  S
O2335     Eu2355   2.356       .  S
O2336      C2359   1.290       .  A
O2336     Eu2352   2.455       .  S
O2337      C2360   1.286       .  A
O2337     Eu2353   2.435       .  S
O2338      C2361   1.288       .  A
O2338     Eu2354   2.448       .  S
O2339      C2362   1.290       .  A
O2339     Eu2355   2.457       .  S
O2340      C2363   1.289       .  A
O2340     Eu2355   2.452       .  S
O2341      C2364   1.290       .  A
O2341     Eu2354   2.454       .  S
O2342      C2365   1.287       .  A
O2342     Eu2356   2.439       .  S
O2343      C2366   1.291       .  A
O2343     Eu3460   2.459   1_545  S
O2344      C2365   1.292       .  A
O2344     Eu2354   2.453       .  S
O2345      C2366   1.294       .  A
O2345     Eu2355   2.470       .  S
O2346      C2361   1.297       .  A
O2346     Eu2352   2.481       .  S
O2347      C2364   1.293       .  A
O2347     Eu2353   2.464       .  S
O2348      C2363   1.297       .  A
O2348     Eu3457   2.483       .  S
O2349      C2362   1.294       .  A
O2349     Eu3456   2.471   1_545  S
O2350      C2359   1.296       .  A
O2350     Eu2356   2.479       .  S
O2351      C2360   1.299       .  A
O2351     Eu2356   2.490       .  S
Eu2352     O3453   2.473       .  S
Eu2352     O3430   2.347       .  S
Eu2352     O3474   2.364       .  S
Eu2352     O2358   2.342       .  S
Eu2353     O3452   2.468       .  S
Eu2353     O3439   2.349       .  S
Eu2353     O3461   2.355       .  S
Eu2353     O2368   2.361       .  S
Eu2354     O2368   2.354       .  S
Eu2354     O2358   2.339       .  S
Eu2355     O2357   2.347       .  S
Eu2355     O2370   2.352       .  S
Eu2356     O3447   2.446       .  S
Eu2356     O3461   2.348       .  S
Eu2356     O2368   2.356       .  S
Eu2356     O3474   2.354       .  S
Eu2356     O2358   2.344       .  S
O2357     Eu3457   2.347       .  S
O2357     Eu3460   2.348   1_545  S
C2359      C3771   1.496       .  S
C2360      C3754   1.494       .  S
C2361      C2527   1.496       .  S
C2362      C2510   1.482       .  S
C2363      C2485   1.488       .  S
C2364      C2496   1.487       .  S
C2365      C2454   1.479       .  S
C2366      C2468   1.488       .  S
H2367      O2368   0.964       .  S
H2369      O2370   0.964       .  S
O2370     Eu3456   2.362   1_545  S
O2370     Eu3460   2.355   1_545  S
O2371      C2382   1.288       .  A
O2371     Eu2407   2.448       .  S
O2372      C2383   1.296       .  A
O2372     Eu2406   2.473       .  S
O2373      C2384   1.290       .  A
O2373     Eu2931   2.456   1_554  S
O2374      C2385   1.291       .  A
O2374     Eu2379   2.450       .  S
O2375      C2385   1.291       .  A
O2375     Eu2409   2.465       .  S
O2376      C2384   1.294       .  A
O2376     Eu2408   2.462       .  S
O2377      C2383   1.288       .  A
O2377     Eu2379   2.444       .  S
O2378      C2382   1.296       .  A
O2378     Eu2379   2.477       .  S
Eu2379     O2925   2.447       .  S
Eu2379     O2389   2.346       .  S
Eu2379     O2933   2.344       .  S
Eu2379     O2380   2.347       .  S
Eu2379     O2939   2.368       .  S
O2380     Eu2409   2.342       .  S
O2380     Eu2406   2.344       .  S
O2381     Eu2931   2.353   1_554  S
O2381     Eu2959   2.355   1_554  S
O2381     Eu2408   2.363       .  S
C2382      C3188   1.496       .  S
C2383      C3174   1.484       .  S
C2384      C2555   1.490       .  S
C2385      C2566   1.490       .  S
H2386      O2387   0.969       .  S
O2387     Eu2931   2.355   1_554  S
O2387     Eu2408   2.349       .  S
O2387     Eu2958   2.353   1_554  S
H2388      O2389   0.969       .  S
O2389     Eu2407   2.353       .  S
O2389     Eu2409   2.358       .  S
O2390      C2413   1.294       .  A
O2390     Eu2406   2.467       .  S
O2391      C2414   1.286       .  A
O2391     Eu2407   2.439       .  S
O2392      C2415   1.294       .  A
O2392     Eu2408   2.465       .  S
O2393      C2416   1.288       .  A
O2393     Eu2409   2.442       .  S
O2394      C2417   1.288       .  A
O2394     Eu2409   2.438       .  S
O2395      C2418   1.290       .  A
O2395     Eu2408   2.451       .  S
O2396      C2419   1.294       .  A
O2396     Eu2962   2.465       .  S
O2397      C2420   1.289       .  A
O2397     Eu2410   2.448       .  S
O2398      C2419   1.292       .  A
O2398     Eu2408   2.467       .  S
O2399      C2420   1.293       .  A
O2399     Eu2409   2.460       .  S
O2400      C2415   1.287       .  A
O2400     Eu2958   2.438   1_554  S
O2401      C2418   1.293       .  A
O2401     Eu2959   2.457   1_554  S
O2402      C2417   1.290       .  A
O2402     Eu2407   2.450       .  S
O2403      C2416   1.292       .  A
O2403     Eu2406   2.458       .  S
O2404      C2413   1.291       .  A
O2404     Eu2410   2.459       .  S
O2405      C2414   1.295       .  A
O2405     Eu2410   2.471       .  S
Eu2406     O2952   2.465       .  S
Eu2406     O2939   2.360       .  S
Eu2406     O2424   2.358       .  S
Eu2406     O2964   2.345       .  S
Eu2407     O2953   2.448       .  S
Eu2407     O2933   2.346       .  S
Eu2407     O2411   2.345       .  S
Eu2407     O2974   2.356       .  S
Eu2408     O2422   2.356       .  S
Eu2408     O2412   2.343       .  S
Eu2409     O2411   2.344       .  S
Eu2409     O2424   2.354       .  S
Eu2410     O2948   2.463       .  S
Eu2410     O2411   2.346       .  S
Eu2410     O2974   2.346       .  S
Eu2410     O2424   2.364       .  S
Eu2410     O2964   2.345       .  S
O2412     Eu2958   2.351   1_554  S
O2412     Eu2962   2.347       .  S
C2413      C3146   1.492       .  S
C2414      C3163   1.491       .  S
C2415      C2440   1.477       .  S
C2416      C2457   1.481       .  S
C2417      C2471   1.476       .  S
C2418      C2429   1.478       .  S
C2419      C2541   1.491       .  S
C2420      C2583   1.480       .  S
H2421      O2422   0.970       .  S
O2422     Eu2959   2.359   1_554  S
O2422     Eu2962   2.342       .  S
H2423      O2424   0.978       .  S
C2425      C2426   1.401       .  A
C2425      C2430   1.396       .  A
C2425      H2432   1.084       .  S
C2426      C2427   1.417       .  A
C2427      C2428   1.396       .  A
C2427      N2434   1.428       .  S
C2428      C2429   1.401       .  A
C2428      H2433   1.084       .  S
C2429      C2430   1.414       .  A
C2430      N2431   1.428       .  S
N2431      O2435   1.261       .  A
N2431      O2436   1.262       .  A
N2434      O2438   1.262       .  A
N2434      O2437   1.262       .  A
C2439      C2440   1.399       .  A
C2439      C2444   1.396       .  A
C2439      H2446   1.085       .  S
C2440      C2441   1.414       .  A
C2441      C2442   1.397       .  A
C2441      N2448   1.428       .  S
C2442      C2443   1.401       .  A
C2442      H2447   1.084       .  S
C2443      C2444   1.413       .  A
C2444      N2445   1.424       .  S
N2445      O2449   1.262       .  A
N2445      O2450   1.260       .  A
N2448      O2452   1.262       .  A
N2448      O2451   1.262       .  A
C2453      C2454   1.400       .  A
C2453      C2458   1.392       .  A
C2453      H2460   1.082       .  S
C2454      C2455   1.415       .  A
C2455      C2456   1.398       .  A
C2455      N2462   1.429       .  S
C2456      C2457   1.404       .  A
C2456      H2461   1.084       .  S
C2457      C2458   1.413       .  A
C2458      N2459   1.426       .  S
N2459      O2463   1.262       .  A
N2459      O2464   1.261       .  A
N2462      O2466   1.262       .  A
N2462      O2465   1.262       .  A
C2467      C2468   1.407       .  A
C2467      C2472   1.399       .  A
C2467      H2474   1.080       .  S
C2468      C2469   1.418       .  A
C2469      C2470   1.398       .  A
C2469      N2476   1.427       .  S
C2470      C2471   1.398       .  A
C2470      H2475   1.083       .  S
C2471      C2472   1.408       .  A
C2472      N2473   1.428       .  S
N2473      O2477   1.261       .  A
N2473      O2478   1.263       .  A
N2476      O2480   1.262       .  A
N2476      O2479   1.262       .  A
C2481      C2482   1.403       .  A
C2481      C2486   1.402       .  A
C2481      H2488   1.084       .  S
C2482      C2483   1.412       .  A
C2483      C2484   1.400       .  A
C2483      N2490   1.426       .  S
C2484      C2485   1.402       .  A
C2484      H2489   1.084       .  S
C2485      C2486   1.417       .  A
C2486      N2487   1.429       .  S
N2487      O2491   1.262       .  A
N2487      O2492   1.262       .  A
N2490      O2494   1.262       .  A
N2490      O2493   1.262       .  A
C2495      C2496   1.404       .  A
C2495      C2500   1.399       .  A
C2495      H2502   1.084       .  S
C2496      C2497   1.415       .  A
C2497      C2498   1.397       .  A
C2497      N2504   1.427       .  S
C2498      C2499   1.402       .  A
C2498      H2503   1.081       .  S
C2499      C2500   1.415       .  A
C2500      N2501   1.428       .  S
N2501      O2505   1.262       .  A
N2501      O2506   1.262       .  A
N2504      O2508   1.261       .  A
N2504      O2507   1.262       .  A
C2509      C2510   1.401       .  A
C2509      C2514   1.399       .  A
C2509      H2516   1.084       .  S
C2510      C2511   1.415       .  A
C2511      C2512   1.400       .  A
C2511      N2518   1.427       .  S
C2512      C2513   1.401       .  A
C2512      H2517   1.084       .  S
C2513      C2514   1.415       .  A
C2514      N2515   1.428       .  S
N2515      O2519   1.262       .  A
N2515      O2520   1.262       .  A
N2518      O2522   1.262       .  A
N2518      O2521   1.262       .  A
C2523      C2524   1.403       .  A
C2523      C2528   1.399       .  A
C2523      H2530   1.084       .  S
C2524      C2525   1.420       .  A
C2525      C2526   1.401       .  A
C2525      N2532   1.428       .  S
C2526      C2527   1.404       .  A
C2526      H2531   1.084       .  S
C2527      C2528   1.419       .  A
C2528      N2529   1.428       .  S
N2529      O2533   1.262       .  A
N2529      O2534   1.260       .  A
N2532      O2536   1.262       .  A
N2532      O2535   1.262       .  A
C2537      C2538   1.406       .  A
C2537      C2542   1.402       .  A
C2537      H2544   1.084       .  S
C2538      C2539   1.413       .  A
C2539      C2540   1.400       .  A
C2539      N2546   1.428       .  S
C2540      C2541   1.405       .  A
C2540      H2545   1.084       .  S
C2541      C2542   1.416       .  A
C2542      N2543   1.429       .  S
N2543      O2547   1.262       .  A
N2543      O2548   1.262       .  A
N2546      O2550   1.262       .  A
N2546      O2549   1.262       .  A
C2551      C2552   1.403       .  A
C2551      C2556   1.395       .  A
C2551      H2558   1.083       .  S
C2552      C2553   1.414       .  A
C2553      C2554   1.399       .  A
C2553      N2560   1.428       .  S
C2554      C2555   1.406       .  A
C2554      H2559   1.084       .  S
C2555      C2556   1.416       .  A
C2556      N2557   1.426       .  S
N2557      O2561   1.260       .  A
N2557      O2562   1.260       .  A
N2560      O2564   1.262       .  A
N2560      O2563   1.262       .  A
C2565      C2566   1.406       .  A
C2565      C2570   1.397       .  A
C2565      H2572   1.084       .  S
C2566      C2567   1.414       .  A
C2567      C2568   1.399       .  A
C2567      N2574   1.428       .  S
C2568      C2569   1.407       .  A
C2568      H2573   1.084       .  S
C2569      C2570   1.415       .  A
C2570      N2571   1.427       .  S
N2571      O2575   1.261       .  A
N2571      O2576   1.261       .  A
N2574      O2578   1.262       .  A
N2574      O2577   1.261       .  A
C2579      C2580   1.404       .  A
C2579      C2584   1.399       .  A
C2579      H2586   1.084       .  S
C2580      C2581   1.412       .  A
C2581      C2582   1.393       .  A
C2581      N2588   1.426       .  S
C2582      C2583   1.399       .  A
C2582      H2587   1.080       .  S
C2583      C2584   1.413       .  A
C2584      N2585   1.427       .  S
N2585      O2589   1.262       .  A
N2585      O2590   1.262       .  A
N2588      O2592   1.261       .  A
N2588      O2591   1.262       .  A
C2593      C3146   1.405       .  A
C2593      C2598   1.400       .  A
C2593      H2600   1.082       .  S
C2594      C2965   1.493       .  S
C2594      C3145   1.405   1_554  A
C2594      C2595   1.419       .  A
C2595      C2596   1.399       .  A
C2595      N2602   1.428       .  S
C2596      C2597   1.403       .  A
C2596      H2601   1.084       .  S
C2597      C3150   1.418   1_554  A
C2598      C3149   1.417       .  A
C2598      N2599   1.430       .  S
N2599      O2603   1.261       .  A
N2599      O3156   1.262       .  A
N2602      O2606   1.261       .  A
N2602      O3157   1.261   1_554  A
O2604      N3151   1.262   1_554  A
O2605      N3154   1.262       .  A
C2607      C3160   1.405       .  A
C2607      C2612   1.399       .  A
C2607      H2614   1.084       .  S
C2608      C3159   1.404   1_554  A
C2608      C2609   1.415       .  A
C2609      C2610   1.396       .  A
C2609      N2616   1.428       .  S
C2610      C2611   1.404   1_554  A
C2610      H2615   1.084       .  S
C2611      C2966   1.489       .  S
C2611      C3164   1.418       .  A
C2612      C3163   1.419       .  A
C2612      N2613   1.429       .  S
N2613      O2617   1.262       .  A
N2613      O3170   1.262       .  A
N2616      O2620   1.262       .  A
N2616      O3171   1.262       .  A
O2618      N3165   1.262   1_554  A
O2619      N3168   1.262       .  A
C2621      C3174   1.399       .  A
C2621      C2626   1.396       .  A
C2621      H2628   1.084       .  S
C2622      C2935   1.491       .  S
C2622      C3173   1.400   1_556  A
C2622      C2623   1.419       .  A
C2623      C2624   1.399       .  A
C2623      N2630   1.427       .  S
C2624      C2625   1.403       .  A
C2624      H2629   1.084       .  S
C2625      C3178   1.418   1_556  A
C2626      C3177   1.417       .  A
C2626      N2627   1.426       .  S
N2627      O2631   1.261       .  A
N2627      O2632   1.262       .  A
N2630      O2634   1.261       .  A
N2630      O2633   1.260   1_556  A
C2635      C2636   1.399   1_554  A
C2635      C2640   1.397       .  A
C2635      H2642   1.079       .  S
C2636      C2934   1.481       .  S
C2636      C3189   1.412       .  A
C2637      C3188   1.419       .  A
C2637      C2638   1.401       .  A
C2637      N2644   1.428       .  S
C2638      C3191   1.404       .  A
C2638      H2643   1.084       .  S
C2639      C3190   1.401       .  A
C2639      C2640   1.411   1_556  A
C2640      N2641   1.425       .  S
N2641      O2645   1.261       .  A
N2641      O3198   1.262       .  A
N2644      O2648   1.262       .  A
N2644      O3199   1.262       .  A
O2646      N3193   1.261       .  A
O2647      N3196   1.262       .  A
C2649      C3754   1.402       .  A
C2649      C2654   1.397       .  A
C2649      H2656   1.084       .  S
C2650      C3464   1.495       .  S
C2650      C3753   1.403   1_545  A
C2650      C2651   1.419       .  A
C2651      C2652   1.402       .  A
C2651      N2658   1.428       .  S
C2652      C2653   1.404   1_545  A
C2652      H2657   1.084       .  S
C2653      C3758   1.419       .  A
C2654      C3757   1.418       .  A
C2654      N2655   1.426       .  S
N2655      O3763   1.261       .  A
N2655      O2660   1.261       .  A
N2658      O3766   1.262       .  A
N2658      O2661   1.262       .  A
O2659      N3759   1.262       .  A
O2662      N3762   1.262       .  A
C2663      C2664   1.404       .  A
C2663      C2668   1.399       .  A
C2663      H2670   1.084       .  S
C2664      C3769   1.420       .  A
C2665      C3768   1.421       .  A
C2665      C2666   1.402       .  A
C2665      N2672   1.429       .  S
C2666      C3771   1.403       .  A
C2666      H2671   1.083       .  S
C2667      C3463   1.493       .  S
C2667      C3770   1.403       .  A
C2667      C2668   1.420       .  A
C2668      N2669   1.429       .  S
N2669      O3777   1.262       .  A
N2669      O2674   1.262   1_565  A
N2672      O3780   1.262       .  A
N2672      O2675   1.262       .  A
O2673      N3773   1.262       .  A
O2676      N3776   1.262   1_545  A
C2677      C3782   1.403       .  A
C2677      C2682   1.398       .  A
C2677      H2684   1.084       .  S
C2678      C3433   1.485   1_545  S
C2678      C3781   1.403       .  A
C2678      C2679   1.416   1_545  A
C2679      C2680   1.397       .  A
C2679      N2686   1.429       .  S
C2680      C2681   1.402   1_565  A
C2680      H2685   1.082       .  S
C2681      C3786   1.417       .  A
C2682      C3785   1.413       .  A
C2682      N2683   1.427       .  S
N2683      O2687   1.262       .  A
N2683      O3792   1.262       .  A
N2686      O2690   1.261       .  A
N2686      O3793   1.262       .  A
O2688      N3787   1.262       .  A
O2689      N3790   1.263       .  A
C2691      C2692   1.405       .  A
C2691      C2696   1.398       .  A
C2691      H2698   1.084       .  S
C2692      C3797   1.414   1_545  A
C2693      C3796   1.413       .  A
C2693      C2694   1.396       .  A
C2693      N2700   1.429       .  S
C2694      C3799   1.405       .  A
C2694      H2699   1.084       .  S
C2695      C3432   1.484       .  S
C2695      C3798   1.403   1_545  A
C2695      C2696   1.416       .  A
C2696      N2697   1.429       .  S
N2697      O2701   1.262       .  A
N2697      O3806   1.262       .  A
N2700      O2704   1.262       .  A
N2700      O3807   1.262       .  A
O2702      N3801   1.262       .  A
O2703      N3804   1.261       .  A
C2705      C2710   1.398       .  A
C2705      H2712   1.084       .  S
C2706      C2707   1.413       .  A
C2707      C2708   1.394       .  A
C2707      N2714   1.426       .  S
C2708      C2709   1.400       .  A
C2708      H2713   1.082       .  S
C2710      N2711   1.428       .  S
N2711      O2715   1.262       .  A
N2711      O2716   1.262       .  A
N2714      O2718   1.261       .  A
N2714      O2717   1.262       .  A
C2719      C2720   1.403       .  A
C2719      C2724   1.400       .  A
C2719      H2726   1.084       .  S
C2721      C2722   1.403       .  A
C2721      N2728   1.427       .  S
C2722      H2727   1.084       .  S
C2723      C2724   1.417       .  A
C2724      N2725   1.428       .  S
N2725      O2729   1.262       .  A
N2725      O2730   1.262       .  A
N2728      O2732   1.260       .  A
N2728      O2731   1.262       .  A
C2733      C2734   1.394       .  A
C2733      C2738   1.394       .  A
C2733      H2740   1.083       .  S
C2735      C2736   1.405       .  A
C2735      N2742   1.431       .  S
C2736      H2741   1.084       .  S
C2737      C2738   1.414       .  A
C2738      N2739   1.428       .  S
N2739      O2743   1.262       .  A
N2739      O2744   1.262       .  A
N2742      O2746   1.262       .  A
N2742      O2745   1.262       .  A
C2747      C2748   1.403       .  A
C2747      C2752   1.397       .  A
C2747      H2754   1.081       .  S
C2749      C2750   1.396       .  A
C2749      N2756   1.426       .  S
C2750      H2755   1.081       .  S
C2751      C2752   1.413       .  A
C2752      N2753   1.428       .  S
N2753      O2757   1.262       .  A
N2753      O2758   1.262       .  A
N2756      O2760   1.262       .  A
N2756      O2759   1.261       .  A
O2761      C2772   1.288       .  A
O2761     Eu2797   2.447   1_545  S
O2762      C2773   1.292       .  A
O2762     Eu2796   2.453   1_545  S
O2763      C2774   1.289       .  A
O2763     Eu2769   2.450       .  S
O2764      C2775   1.288       .  A
O2765      C2775   1.294       .  A
O2765     Eu2799   2.465   1_545  S
O2766      C2774   1.296       .  A
O2766     Eu2798   2.476   1_545  S
O2767      C2773   1.291       .  A
O2768      C2772   1.293       .  A
O2768     Eu2769   2.459       .  S
Eu2769     O2771   2.351       .  S
O2771     Eu2797   2.352   1_545  S
O2771     Eu2798   2.345   1_545  S
C2772      C3300   1.488       .  S
C2773      C3258   1.482       .  S
C2774      C3191   1.495       .  S
C2775      C3160   1.492       .  S
H2776      O2777   0.962       .  S
O2777     Eu2796   2.358   1_545  S
H2778      O2779   0.962       .  S
O2779     Eu2799   2.346   1_545  S
O2780      C2803   1.293       .  A
O2780     Eu3900   2.471       .  S
O2781      C2804   1.288       .  A
O2781     Eu3901   2.445       .  S
O2782      C2805   1.290       .  A
O2783      C2806   1.290       .  A
O2784      C2807   1.295       .  A
O2784     Eu2799   2.470       .  S
O2785      C2808   1.291       .  A
O2785     Eu2798   2.446   1_545  S
O2786      C2809   1.297       .  A
O2786     Eu2800   2.484       .  S
O2787      C2810   1.295       .  A
O2788      C2809   1.289       .  A
O2788     Eu3902   2.445       .  S
O2789      C2810   1.289       .  A
O2789     Eu3903   2.447       .  S
O2790      C2805   1.296       .  A
O2790     Eu2796   2.479       .  S
O2791      C2808   1.288       .  A
O2791     Eu2797   2.447   1_545  S
O2792      C2807   1.285       .  A
O2793      C2806   1.298       .  A
O2794      C2803   1.292       .  A
O2795      C2804   1.293       .  A
O2795     Eu2800   2.468       .  S
Eu2796     O3884   2.463       .  S
Eu2796     O3906   2.348       .  S
Eu2797     O3885   2.454       .  S
Eu2797     O3916   2.351       .  S
Eu2798     O3892   2.469       .  S
Eu2798     O3916   2.354       .  S
Eu2798     O3354   2.355       .  S
Eu2799     O3893   2.447       .  S
Eu2799     O3905   2.349       .  S
Eu2799     O3366   2.358       .  S
Eu2800     O2812   2.359       .  S
O2801     Eu3903   2.350       .  S
O2802     Eu3900   2.349       .  S
O2802     Eu3350   2.352   1_556  S
C2803      C3275   1.481       .  S
C2804      C3289   1.473       .  S
C2805      C3216   1.495       .  S
C2806      C3205   1.495       .  S
C2807      C3244   1.485       .  S
C2808      C3233   1.484       .  S
C2809      C3177   1.488       .  S
C2810      C3149   1.489       .  S
H2811      O2812   0.964       .  S
O2812     Eu3901   2.352       .  S
O2812     Eu3902   2.357       .  S
H2813      O2814   0.961       .  S
O2814     Eu3351   2.357   1_556  S
O2815      C2826   1.288       .  A
O2815     Eu2851   2.447       .  S
O2816      C2827   1.293       .  A
O2816     Eu2850   2.460       .  S
O2817      C2828   1.289       .  A
O2817     Eu2823   2.452       .  S
O2818      C2829   1.290       .  A
O2819      C2829   1.295       .  A
O2819     Eu2853   2.474       .  S
O2820      C2828   1.295       .  A
O2820     Eu2852   2.474       .  S
O2821      C2827   1.287       .  A
O2821     Eu2823   2.444       .  S
O2822      C2826   1.293       .  A
O2822     Eu2823   2.461       .  S
Eu2823     O2825   2.348       .  S
Eu2823     O2831   2.355       .  S
O2824     Eu2853   2.353       .  S
O2825     Eu2851   2.344       .  S
O2825     Eu2852   2.359       .  S
C2826      C3303   1.489       .  S
C2827      C3261   1.482       .  S
C2828      C3065   1.486       .  S
C2829      C3034   1.485       .  S
H2830      O2831   0.967       .  S
O2831     Eu2852   2.357       .  S
O2831     Eu2850   2.347       .  S
H2832      O2833   0.965       .  S
O2833     Eu2853   2.353       .  S
O2834      C2857   1.288       .  A
O2834     Eu2850   2.442       .  S
O2835      C2858   1.285       .  A
O2835     Eu2851   2.419       .  S
O2836      C2859   1.292       .  A
O2836     Eu2852   2.451       .  S
O2837      C2860   1.289       .  A
O2837     Eu2853   2.448       .  S
O2838      C2861   1.293       .  A
O2838     Eu2853   2.463       .  S
O2839      C2862   1.290       .  A
O2839     Eu2852   2.454       .  S
O2840      C2863   1.285       .  A
O2840     Eu2854   2.430       .  S
O2841      C2864   1.287       .  A
O2842      C2863   1.299       .  A
O2842     Eu2852   2.490       .  S
O2843      C2864   1.296       .  A
O2843     Eu2853   2.479       .  S
O2844      C2859   1.293       .  A
O2844     Eu2850   2.474       .  S
O2845      C2862   1.295       .  A
O2845     Eu2851   2.471       .  S
O2846      C2861   1.293       .  A
O2847      C2860   1.293       .  A
O2848      C2857   1.294       .  A
O2848     Eu2854   2.472       .  S
O2849      C2858   1.289       .  A
O2849     Eu2854   2.452       .  S
Eu2850     O2856   2.357       .  S
Eu2851     O2866   2.359       .  S
Eu2852     O2866   2.349       .  S
Eu2852     O2856   2.348       .  S
Eu2853     O2855   2.346       .  S
Eu2853     O2868   2.354       .  S
Eu2854     O2866   2.359       .  S
Eu2854     O2856   2.352       .  S
C2857      C3272   1.478       .  S
C2858      C3286   1.458       .  S
C2859      C3121   1.491       .  S
C2860      C3132   1.488       .  S
C2861      C3090   1.491       .  S
C2862      C3104   1.494       .  S
C2863      C3076   1.491       .  S
C2864      C3051   1.493       .  S
H2865      O2866   0.965       .  S
H2867      O2868   0.964       .  S
O2869      C2880   1.295       .  A
O2869     Eu2905   2.471       .  S
O2870      C2881   1.292       .  A
O2870     Eu2904   2.457       .  S
O2871      C2882   1.293       .  A
O2871     Eu2877   2.465       .  S
O2872      C2883   1.288       .  A
O2872     Eu3981   2.447   1_545  S
O2873      C2883   1.294       .  A
O2873     Eu2907   2.464       .  S
O2874      C2882   1.290       .  A
O2874     Eu2906   2.460       .  S
O2875      C2881   1.289       .  A
O2875     Eu2877   2.450       .  S
O2876      C2880   1.289       .  A
O2876     Eu2877   2.450       .  S
Eu2877     O3976   2.440       .  S
Eu2877     O3991   2.362       .  S
Eu2877     O2879   2.350       .  S
Eu2877     O3982   2.354       .  S
Eu2877     O2885   2.348       .  S
O2878     Eu3981   2.349   1_545  S
O2878     Eu2907   2.355       .  S
O2878     Eu4008   2.342       .  S
O2879     Eu2905   2.352       .  S
O2879     Eu2906   2.358       .  S
C2880      C4351   1.483       .  S
C2881      C4334   1.483       .  S
C2882      C2995   1.488       .  S
C2883      C2978   1.482       .  S
H2884      O2885   0.965       .  S
O2885     Eu2906   2.353       .  S
O2885     Eu2904   2.352       .  S
H2886      O2887   0.968       .  S
O2887     Eu3981   2.364   1_545  S
O2887     Eu4009   2.356       .  S
O2887     Eu2907   2.356       .  S
O2888      C2911   1.288       .  A
O2888     Eu2904   2.440       .  S
O2889      C2912   1.290       .  A
O2889     Eu2905   2.451       .  S
O2890      C2913   1.289       .  A
O2890     Eu2906   2.450       .  S
O2891      C2914   1.288       .  A
O2891     Eu2907   2.443       .  S
O2892      C2915   1.292       .  A
O2892     Eu2907   2.467       .  S
O2893      C2916   1.289       .  A
O2893     Eu2906   2.453       .  S
O2894      C2917   1.288       .  A
O2894     Eu2908   2.442       .  S
O2895      C2918   1.289       .  A
O2895     Eu4012   2.449       .  S
O2896      C2917   1.292       .  A
O2896     Eu2906   2.456       .  S
O2897      C2918   1.294       .  A
O2897     Eu2907   2.474       .  S
O2898      C2913   1.293       .  A
O2898     Eu2904   2.461       .  S
O2899      C2916   1.295       .  A
O2899     Eu2905   2.471       .  S
O2900      C2915   1.293       .  A
O2900     Eu4009   2.465       .  S
O2901      C2914   1.298       .  A
O2901     Eu4008   2.486       .  S
O2902      C2911   1.297       .  A
O2902     Eu2908   2.485       .  S
O2903      C2912   1.297       .  A
O2903     Eu2908   2.480       .  S
Eu2904     O4005   2.472       .  S
Eu2904     O3982   2.338       .  S
Eu2904     O4026   2.358       .  S
Eu2904     O2910   2.349       .  S
Eu2905     O4004   2.478       .  S
Eu2905     O3991   2.348       .  S
Eu2905     O4013   2.353       .  S
Eu2905     O2920   2.359       .  S
Eu2906     O2920   2.354       .  S
Eu2906     O2910   2.348       .  S
Eu2907     O2909   2.343       .  S
Eu2907     O2922   2.358       .  S
Eu2908     O3999   2.457       .  S
Eu2908     O4013   2.347       .  S
Eu2908     O2920   2.358       .  S
Eu2908     O4026   2.355       .  S
Eu2908     O2910   2.350       .  S
O2909     Eu4009   2.349       .  S
O2909     Eu4012   2.344       .  S
C2911      C4323   1.489       .  S
C2912      C4306   1.492       .  S
C2913      C3079   1.490       .  S
C2914      C3062   1.488       .  S
C2915      C3037   1.485       .  S
C2916      C3048   1.494       .  S
C2917      C3006   1.482       .  S
C2918      C3020   1.493       .  S
H2919      O2920   0.964       .  S
H2921      O2922   0.965       .  S
O2922     Eu4008   2.362       .  S
O2922     Eu4012   2.355       .  S
O2923      C2934   1.290       .  A
O2923     Eu2959   2.460       .  S
O2924      C2935   1.298       .  A
O2924     Eu2958   2.484       .  S
O2925      C2936   1.288       .  A
O2926      C2937   1.292       .  A
O2926     Eu2931   2.456       .  S
O2927      C2937   1.290       .  A
O2927     Eu2961   2.461       .  S
O2928      C2936   1.295       .  A
O2928     Eu2960   2.472       .  S
O2929      C2935   1.286       .  A
O2929     Eu2931   2.435       .  S
O2930      C2934   1.292       .  A
O2930     Eu2931   2.458       .  S
Eu2931     O2941   2.337       .  S
Eu2931     O2932   2.354       .  S
O2932     Eu2961   2.344       .  S
O2932     Eu2958   2.343       .  S
O2933     Eu2960   2.353       .  S
C2936      C3107   1.492       .  S
C2937      C3118   1.488       .  S
H2938      O2939   0.970       .  S
O2939     Eu2960   2.353       .  S
H2940      O2941   0.968       .  S
O2941     Eu2959   2.345       .  S
O2941     Eu2961   2.349       .  S
O2942      C2965   1.296       .  A
O2942     Eu2958   2.474   1_554  S
O2943      C2966   1.288       .  A
O2943     Eu2959   2.446       .  S
O2944      C2967   1.293       .  A
O2944     Eu2960   2.460       .  S
O2945      C2968   1.287       .  A
O2945     Eu2961   2.438       .  S
O2946      C2969   1.285       .  A
O2946     Eu2961   2.427       .  S
O2947      C2970   1.290       .  A
O2947     Eu2960   2.452       .  S
O2948      C2971   1.294       .  A
O2949      C2972   1.288       .  A
O2949     Eu2962   2.447   1_556  S
O2950      C2971   1.292       .  A
O2950     Eu2960   2.466       .  S
O2951      C2972   1.292       .  A
O2951     Eu2961   2.452       .  S
O2952      C2967   1.292       .  A
O2953      C2970   1.291       .  A
O2954      C2969   1.291       .  A
O2954     Eu2959   2.450       .  S
O2955      C2968   1.293       .  A
O2955     Eu2958   2.457       .  S
O2956      C2965   1.290       .  A
O2956     Eu2962   2.454       .  S
O2957      C2966   1.294   1_554  A
O2957     Eu2962   2.467       .  S
Eu2958     O2976   2.344       .  S
Eu2959     O2963   2.353       .  S
Eu2960     O2974   2.358       .  S
Eu2960     O2964   2.342       .  S
Eu2961     O2963   2.351       .  S
Eu2961     O2976   2.343       .  S
Eu2962     O2963   2.352   1_554  S
Eu2962     O2976   2.359   1_554  S
C2967      C2992   1.488       .  S
C2968      C3009   1.481       .  S
C2969      C3023   1.481       .  S
C2970      C2981   1.478       .  S
C2971      C3093   1.489       .  S
C2972      C3135   1.487       .  S
H2973      O2974   0.971       .  S
H2975      O2976   0.977       .  S
C2977      C2978   1.402       .  A
C2977      C2982   1.395       .  A
C2977      H2984   1.084       .  S
C2978      C2979   1.415       .  A
C2979      C2980   1.397       .  A
C2979      N2986   1.426       .  S
C2980      C2981   1.402       .  A
C2980      H2985   1.084       .  S
C2981      C2982   1.412       .  A
C2982      N2983   1.427       .  S
N2983      O2987   1.262       .  A
N2983      O2988   1.262       .  A
N2986      O2990   1.261       .  A
N2986      O2989   1.263       .  A
C2991      C2992   1.402       .  A
C2991      C2996   1.398       .  A
C2991      H2998   1.084       .  S
C2992      C2993   1.415       .  A
C2993      C2994   1.401       .  A
C2993      N3000   1.426       .  S
C2994      C2995   1.404       .  A
C2994      H2999   1.084       .  S
C2995      C2996   1.414       .  A
C2996      N2997   1.425       .  S
N2997      O3001   1.262       .  A
N2997      O3002   1.262       .  A
N3000      O3004   1.262       .  A
N3000      O3003   1.262       .  A
C3005      C3006   1.403       .  A
C3005      C3010   1.395       .  A
C3005      H3012   1.081       .  S
C3006      C3007   1.414       .  A
C3007      C3008   1.395       .  A
C3007      N3014   1.428       .  S
C3008      C3009   1.403       .  A
C3008      H3013   1.084       .  S
C3009      C3010   1.415       .  A
C3010      N3011   1.430       .  S
N3011      O3015   1.262       .  A
N3011      O3016   1.262       .  A
N3014      O3018   1.262       .  A
N3014      O3017   1.262       .  A
C3019      C3020   1.410       .  A
C3019      C3024   1.402       .  A
C3019      H3026   1.084       .  S
C3020      C3021   1.420       .  A
C3021      C3022   1.392       .  A
C3021      N3028   1.427       .  S
C3022      C3023   1.396       .  A
C3022      H3027   1.082       .  S
C3023      C3024   1.413       .  A
C3024      N3025   1.429       .  S
N3025      O3029   1.262       .  A
N3025      O3030   1.262       .  A
N3028      O3032   1.262       .  A
N3028      O3031   1.262       .  A
C3033      C3034   1.403       .  A
C3033      C3038   1.402       .  A
C3033      H3040   1.083       .  S
C3034      C3035   1.414       .  A
C3035      C3036   1.399       .  A
C3035      N3042   1.427       .  S
C3036      C3037   1.402       .  A
C3036      H3041   1.084       .  S
C3037      C3038   1.415       .  A
C3038      N3039   1.428       .  S
N3039      O3043   1.262       .  A
N3039      O3044   1.262       .  A
N3042      O3046   1.262       .  A
N3042      O3045   1.262       .  A
C3047      C3048   1.405       .  A
C3047      C3052   1.398       .  A
C3047      H3054   1.084       .  S
C3048      C3049   1.418       .  A
C3049      C3050   1.398       .  A
C3049      N3056   1.427       .  S
C3050      C3051   1.403       .  A
C3050      H3055   1.084       .  S
C3051      C3052   1.419       .  A
C3052      N3053   1.429       .  S
N3053      O3057   1.262       .  A
N3053      O3058   1.262       .  A
N3056      O3060   1.261       .  A
N3056      O3059   1.262       .  A
C3061      C3062   1.402       .  A
C3061      C3066   1.399       .  A
C3061      H3068   1.084       .  S
C3062      C3063   1.419       .  A
C3063      C3064   1.400       .  A
C3063      N3070   1.429       .  S
C3064      C3065   1.403       .  A
C3064      H3069   1.084       .  S
C3065      C3066   1.416       .  A
C3066      N3067   1.428       .  S
N3067      O3071   1.262       .  A
N3067      O3072   1.262       .  A
N3070      O3074   1.262       .  A
N3070      O3073   1.262       .  A
C3075      C3076   1.402       .  A
C3075      C3080   1.395       .  A
C3075      H3082   1.084       .  S
C3076      C3077   1.421       .  A
C3077      C3078   1.399       .  A
C3077      N3084   1.429       .  S
C3078      C3079   1.405       .  A
C3078      H3083   1.084       .  S
C3079      C3080   1.416       .  A
C3080      N3081   1.427       .  S
N3081      O3085   1.262       .  A
N3081      O3086   1.261       .  A
N3084      O3088   1.262       .  A
N3084      O3087   1.262       .  A
C3089      C3090   1.405       .  A
C3089      C3094   1.403       .  A
C3089      H3096   1.084       .  S
C3090      C3091   1.414       .  A
C3091      C3092   1.399       .  A
C3091      N3098   1.424       .  S
C3092      C3093   1.403       .  A
C3092      H3097   1.084       .  S
C3093      C3094   1.415       .  A
C3094      N3095   1.428       .  S
N3095      O3099   1.262       .  A
N3095      O3100   1.262       .  A
N3098      O3102   1.261       .  A
N3098      O3101   1.262       .  A
C3103      C3104   1.406       .  A
C3103      C3108   1.399       .  A
C3103      H3110   1.082       .  S
C3104      C3105   1.417       .  A
C3105      C3106   1.397       .  A
C3105      N3112   1.427       .  S
C3106      C3107   1.404       .  A
C3106      H3111   1.084       .  S
C3107      C3108   1.417       .  A
C3108      N3109   1.428       .  S
N3109      O3113   1.262       .  A
N3109      O3114   1.262       .  A
N3112      O3116   1.262       .  A
N3112      O3115   1.262       .  A
C3117      C3118   1.405       .  A
C3117      C3122   1.397       .  A
C3117      H3124   1.084       .  S
C3118      C3119   1.415       .  A
C3119      C3120   1.400       .  A
C3119      N3126   1.428       .  S
C3120      C3121   1.407       .  A
C3120      H3125   1.084       .  S
C3121      C3122   1.414       .  A
C3122      N3123   1.426       .  S
N3123      O3127   1.261       .  A
N3123      O3128   1.262       .  A
N3126      O3130   1.262       .  A
N3126      O3129   1.262       .  A
C3131      C3132   1.404       .  A
C3131      C3136   1.395       .  A
C3131      H3138   1.084       .  S
C3132      C3133   1.416       .  A
C3133      C3134   1.395       .  A
C3133      N3140   1.428       .  S
C3134      C3135   1.404       .  A
C3134      H3139   1.084       .  S
C3135      C3136   1.415       .  A
C3136      N3137   1.425       .  S
N3137      O3141   1.262       .  A
N3137      O3142   1.260       .  A
N3140      O3144   1.262       .  A
N3140      O3143   1.262       .  A
C3145      C3150   1.399       .  A
C3145      H3152   1.084       .  S
C3146      C3147   1.416       .  A
C3147      C3148   1.398       .  A
C3147      N3154   1.428       .  S
C3148      C3149   1.403       .  A
C3148      H3153   1.084       .  S
C3150      N3151   1.428       .  S
N3151      O3155   1.262       .  A
N3154      O3158   1.262       .  A
C3159      C3164   1.398       .  A
C3159      H3166   1.084       .  S
C3160      C3161   1.418       .  A
C3161      C3162   1.397       .  A
C3161      N3168   1.428       .  S
C3162      C3163   1.403       .  A
C3162      H3167   1.083       .  S
C3164      N3165   1.428       .  S
N3165      O3169   1.261       .  A
N3168      O3172   1.262       .  A
C3173      C3178   1.398       .  A
C3173      H3180   1.084       .  S
C3174      C3175   1.417       .  A
C3175      C3176   1.401       .  A
C3175      N3182   1.428       .  S
C3176      C3177   1.403       .  A
C3176      H3181   1.084       .  S
C3178      N3179   1.425       .  S
N3179      O3183   1.260       .  A
N3179      O3184   1.261   1_554  A
N3182      O3186   1.262       .  A
N3182      O3185   1.262       .  A
C3187      C3188   1.403       .  A
C3187      C3192   1.400       .  A
C3187      H3194   1.082       .  S
C3189      C3190   1.401       .  A
C3189      N3196   1.429       .  S
C3190      H3195   1.076       .  S
C3191      C3192   1.418       .  A
C3192      N3193   1.427       .  S
N3193      O3197   1.261       .  A
N3196      O3200   1.262       .  A
C3201      C4306   1.403       .  A
C3201      C3206   1.400       .  A
C3201      H3208   1.081       .  S
C3202      C4016   1.493       .  S
C3202      C4305   1.404   1_545  A
C3202      C3203   1.417       .  A
C3203      C3204   1.402       .  A
C3203      N3210   1.428       .  S
C3204      C3205   1.404   1_545  A
C3204      H3209   1.084       .  S
C3205      C4310   1.419       .  A
C3206      C4309   1.417       .  A
C3206      N3207   1.428       .  S
N3207      O4315   1.262       .  A
N3207      O3212   1.262       .  A
N3210      O4318   1.262       .  A
N3210      O3213   1.262       .  A
O3211      N4311   1.262       .  A
O3214      N4314   1.262       .  A
C3215      C3216   1.406       .  A
C3215      C3220   1.401       .  A
C3215      H3222   1.082       .  S
C3216      C4321   1.418   1_565  A
C3217      C4320   1.417       .  A
C3217      C3218   1.400       .  A
C3217      N3224   1.428       .  S
C3218      C4323   1.402       .  A
C3218      H3223   1.084       .  S
C3219      C4015   1.489       .  S
C3219      C4322   1.401   1_565  A
C3219      C3220   1.417       .  A
C3220      N3221   1.429       .  S
N3221      O4329   1.262       .  A
N3221      O3226   1.262   1_565  A
N3224      O4332   1.262       .  A
N3224      O3227   1.262       .  A
O3225      N4325   1.262       .  A
O3228      N4328   1.260       .  A
C3229      C4334   1.404       .  A
C3229      C3234   1.399       .  A
C3229      H3236   1.084       .  S
C3230      C3985   1.485       .  S
C3230      C4333   1.403   1_565  A
C3230      C3231   1.416       .  A
C3231      C3232   1.396       .  A
C3231      N3238   1.427       .  S
C3232      C3233   1.404   1_565  A
C3232      H3237   1.083       .  S
C3233      C4338   1.413       .  A
C3234      C4337   1.415       .  A
C3234      N3235   1.429       .  S
N3235      O3239   1.262       .  A
N3235      O4344   1.262       .  A
N3238      O3242   1.260   1_565  A
N3238      O4345   1.262       .  A
O3240      N4339   1.261       .  A
O3241      N4342   1.262       .  A
C3243      C3244   1.403   1_545  A
C3243      C3248   1.394       .  A
C3243      H3250   1.084       .  S
C3244      C4349   1.419       .  A
C3245      C4348   1.414       .  A
C3245      C3246   1.398       .  A
C3245      N3252   1.428       .  S
C3246      C4351   1.403       .  A
C3246      H3251   1.084       .  S
C3247      C3984   1.485       .  S
C3247      C4350   1.404   1_545  A
C3247      C3248   1.416       .  A
C3248      N3249   1.428       .  S
N3249      O3253   1.262       .  A
N3249      O4358   1.262   1_545  A
N3252      O3256   1.262       .  A
N3252      O4359   1.262       .  A
O3254      N4353   1.262       .  A
O3255      N4356   1.260   1_545  A
C3257      C3262   1.398       .  A
C3257      H3264   1.084       .  S
C3258      C3259   1.413       .  A
C3259      C3260   1.394       .  A
C3259      N3266   1.429       .  S
C3260      C3261   1.401       .  A
C3260      H3265   1.080       .  S
C3262      N3263   1.429       .  S
N3263      O3267   1.262       .  A
N3263      O3268   1.262       .  A
N3266      O3270   1.262       .  A
N3266      O3269   1.262       .  A
C3271      C3272   1.401       .  A
C3271      C3276   1.398       .  A
C3271      H3278   1.085       .  S
C3273      C3274   1.398       .  A
C3273      N3280   1.429       .  S
C3274      H3279   1.084       .  S
C3275      C3276   1.413       .  A
C3276      N3277   1.426       .  S
N3277      O3281   1.262       .  A
N3277      O3282   1.262       .  A
N3280      O3284   1.262       .  A
N3280      O3283   1.262       .  A
C3285      C3286   1.392       .  A
C3285      C3290   1.392       .  A
C3285      H3292   1.083       .  S
C3287      C3288   1.405       .  A
C3287      N3294   1.430       .  S
C3288      H3293   1.084       .  S
C3289      C3290   1.414       .  A
C3290      N3291   1.428       .  S
N3291      O3295   1.262       .  A
N3291      O3296   1.262       .  A
N3294      O3298   1.261       .  A
N3294      O3297   1.263       .  A
C3299      C3300   1.403       .  A
C3299      C3304   1.397       .  A
C3299      H3306   1.082       .  S
C3301      C3302   1.395       .  A
C3301      N3308   1.424       .  S
C3302      H3307   1.083       .  S
C3303      C3304   1.416       .  A
C3304      N3305   1.427       .  S
N3305      O3309   1.261       .  A
N3305      O3310   1.260       .  A
N3308      O3312   1.262       .  A
N3308      O3311   1.262       .  A
O3313      C3324   1.288       .  A
O3313     Eu3349   2.444       .  S
O3314      C3325   1.293       .  A
O3314     Eu3348   2.457       .  S
O3315      C3326   1.287       .  A
O3315     Eu3321   2.444       .  S
O3316      C3327   1.288       .  A
O3317      C3327   1.294       .  A
O3317     Eu3351   2.465       .  S
O3318      C3326   1.294       .  A
O3318     Eu3350   2.465       .  S
O3319      C3325   1.289       .  A
O3319     Eu3873   2.448       .  S
O3320      C3324   1.291       .  A
O3320     Eu3321   2.457       .  S
Eu3321     O3871   2.448   1_554  S
Eu3321     O3323   2.348       .  S
Eu3321     O3881   2.354   1_554  S
O3322     Eu3903   2.347       .  S
O3323     Eu3349   2.353       .  S
O3323     Eu3350   2.344       .  S
C3324      C3852   1.477       .  S
C3325      C3810   1.483       .  S
C3326      C3743   1.492       .  S
C3327      C3712   1.491       .  S
H3328      O3329   0.962       .  S
O3329     Eu3873   2.358       .  S
O3329     Eu3902   2.351       .  S
O3329     Eu3348   2.351       .  S
H3330      O3331   0.962       .  S
O3331     Eu3351   2.348       .  S
O3332      C3355   1.291       .  A
O3333      C3356   1.289       .  A
O3334      C3357   1.289       .  A
O3334     Eu3902   2.454       .  S
O3335      C3358   1.291       .  A
O3335     Eu3903   2.461       .  S
O3336      C3359   1.292       .  A
O3336     Eu3351   2.451       .  S
O3337      C3360   1.293       .  A
O3337     Eu3350   2.460       .  S
O3338      C3361   1.296       .  A
O3338     Eu3352   2.477   1_556  S
O3339      C3362   1.295       .  A
O3340      C3361   1.289       .  A
O3341      C3362   1.289       .  A
O3342      C3357   1.300       .  A
O3342     Eu3348   2.500       .  S
O3343      C3360   1.288       .  A
O3343     Eu3349   2.448       .  S
O3344      C3359   1.288       .  A
O3345      C3358   1.295       .  A
O3346      C3355   1.295       .  A
O3346     Eu3904   2.473       .  S
O3347      C3356   1.293       .  A
O3347     Eu3352   2.464       .  S
Eu3350     O3886   2.454   1_554  S
Eu3350     O3881   2.350   1_554  S
Eu3351     O3887   2.464   1_554  S
Eu3351     O3874   2.341   1_554  S
Eu3352     O3898   2.463   1_554  S
Eu3352     O3364   2.358       .  S
Eu3352     O3906   2.350   1_554  S
O3354     Eu3904   2.350       .  S
C3355      C3827   1.486       .  S
C3356      C3841   1.486       .  S
C3357      C3768   1.500       .  S
C3358      C3757   1.496       .  S
C3359      C3796   1.477       .  S
C3360      C3785   1.483       .  S
C3361      C3729   1.488       .  S
C3362      C3701   1.490       .  S
H3363      O3364   0.964       .  S
H3365      O3366   0.960       .  S
O3367      C3378   1.288       .  A
O3367     Eu3403   2.447       .  S
O3368      C3379   1.291       .  A
O3368     Eu3402   2.450       .  S
O3369      C3380   1.289       .  A
O3369     Eu3375   2.450       .  S
O3370      C3381   1.288       .  A
O3371      C3381   1.296       .  A
O3371     Eu3405   2.480       .  S
O3372      C3380   1.295       .  A
O3372     Eu3404   2.471       .  S
O3373      C3379   1.290       .  A
O3373     Eu3375   2.456       .  S
O3374      C3378   1.292       .  A
O3374     Eu3375   2.457       .  S
Eu3375     O3377   2.345       .  S
Eu3375     O3383   2.357       .  S
O3376     Eu3405   2.353       .  S
O3377     Eu3403   2.342       .  S
O3377     Eu3404   2.351       .  S
C3378      C3855   1.480       .  S
C3379      C3813   1.484       .  S
C3380      C3617   1.489       .  S
C3381      C3586   1.486       .  S
H3382      O3383   0.967       .  S
O3383     Eu3404   2.354       .  S
O3383     Eu3402   2.356       .  S
H3384      O3385   0.965       .  S
O3385     Eu3405   2.353       .  S
O3386      C3409   1.289       .  A
O3386     Eu3402   2.450       .  S
O3387      C3410   1.286       .  A
O3387     Eu3403   2.431       .  S
O3388      C3411   1.294       .  A
O3388     Eu3404   2.461       .  S
O3389      C3412   1.289       .  A
O3389     Eu3405   2.445       .  S
O3390      C3413   1.292       .  A
O3390     Eu3405   2.451       .  S
O3391      C3414   1.290       .  A
O3391     Eu3404   2.456       .  S
O3392      C3415   1.291       .  A
O3392     Eu3406   2.461       .  S
O3393      C3416   1.287       .  A
O3394      C3415   1.296       .  A
O3394     Eu3404   2.477       .  S
O3395      C3416   1.298       .  A
O3395     Eu3405   2.489       .  S
O3396      C3411   1.292       .  A
O3396     Eu3402   2.465       .  S
O3397      C3414   1.292       .  A
O3397     Eu3403   2.455       .  S
O3398      C3413   1.293       .  A
O3399      C3412   1.295       .  A
O3400      C3409   1.295       .  A
O3400     Eu3406   2.470       .  S
O3401      C3410   1.290       .  A
O3401     Eu3406   2.445       .  S
Eu3402     O3408   2.357       .  S
Eu3403     O3418   2.355       .  S
Eu3404     O3418   2.349       .  S
Eu3404     O3408   2.351       .  S
Eu3405     O3407   2.345       .  S
Eu3405     O3420   2.355       .  S
Eu3406     O3418   2.353       .  S
Eu3406     O3408   2.349       .  S
C3409      C3824   1.484       .  S
C3410      C3838   1.475       .  S
C3411      C3673   1.491       .  S
C3412      C3684   1.490       .  S
C3413      C3642   1.489       .  S
C3414      C3656   1.491       .  S
C3415      C3628   1.492       .  S
C3416      C3603   1.491       .  S
H3417      O3418   0.965       .  S
H3419      O3420   0.964       .  S
O3421      C3432   1.293       .  A
O3421     Eu3457   2.458       .  S
O3422      C3433   1.293   1_545  A
O3422     Eu3456   2.463   1_545  S
O3423      C3434   1.292       .  A
O3423     Eu3429   2.454   1_565  S
O3424      C3435   1.290       .  A
O3425      C3435   1.293       .  A
O3425     Eu3459   2.460       .  S
O3426      C3434   1.287       .  A
O3426     Eu3458   2.444       .  S
O3427      C3433   1.287       .  A
O3427     Eu3429   2.443   1_565  S
O3428      C3432   1.289       .  A
O3428     Eu3429   2.454       .  S
Eu3429     O3431   2.349   1_545  S
Eu3429     O3437   2.348   1_545  S
O3430     Eu3459   2.362       .  S
O3431     Eu3457   2.353   1_565  S
O3431     Eu3458   2.357       .  S
C3434      C3547   1.486       .  S
C3435      C3530   1.483       .  S
H3436      O3437   0.965       .  S
O3437     Eu3458   2.352       .  S
O3437     Eu3456   2.348       .  S
H3438      O3439   0.967       .  S
O3439     Eu3459   2.362       .  S
O3440      C3463   1.287       .  A
O3440     Eu3456   2.436       .  S
O3441      C3464   1.290       .  A
O3441     Eu3457   2.452       .  S
O3442      C3465   1.290       .  A
O3442     Eu3458   2.457       .  S
O3443      C3466   1.291       .  A
O3443     Eu3459   2.458       .  S
O3444      C3467   1.292       .  A
O3444     Eu3459   2.468       .  S
O3445      C3468   1.289       .  A
O3445     Eu3458   2.450       .  S
O3446      C3469   1.290       .  A
O3446     Eu3460   2.457       .  S
O3447      C3470   1.289       .  A
O3448      C3469   1.290       .  A
O3448     Eu3458   2.444       .  S
O3449      C3470   1.297       .  A
O3449     Eu3459   2.494       .  S
O3450      C3465   1.295       .  A
O3450     Eu3456   2.474       .  S
O3451      C3468   1.296       .  A
O3451     Eu3457   2.479   1_565  S
O3452      C3467   1.293       .  A
O3453      C3466   1.296       .  A
O3454      C3463   1.298       .  A
O3454     Eu3460   2.485       .  S
O3455      C3464   1.297   1_565  A
O3455     Eu3460   2.484       .  S
Eu3456     O3462   2.349       .  S
Eu3457     O3472   2.365   1_545  S
Eu3458     O3472   2.356       .  S
Eu3458     O3462   2.342       .  S
Eu3459     O3461   2.345       .  S
Eu3459     O3474   2.355       .  S
Eu3460     O3472   2.358       .  S
Eu3460     O3462   2.348       .  S
C3465      C3631   1.489       .  S
C3466      C3614   1.492       .  S
C3467      C3589   1.488       .  S
C3468      C3600   1.490       .  S
C3469      C3558   1.480       .  S
C3470      C3572   1.489       .  S
H3471      O3472   0.964       .  S
H3473      O3474   0.965       .  S
O3475      C3486   1.288       .  A
O3475     Eu3511   2.448       .  S
O3476      C3487   1.297       .  A
O3476     Eu3510   2.488       .  S
O3477      C3488   1.289       .  A
O3477     Eu4035   2.453   1_554  S
O3478      C3489   1.291       .  A
O3478     Eu3483   2.450       .  S
O3479      C3489   1.293       .  A
O3479     Eu3513   2.472       .  S
O3480      C3488   1.293       .  A
O3480     Eu3512   2.459       .  S
O3481      C3487   1.290       .  A
O3481     Eu3483   2.458       .  S
O3482      C3486   1.295       .  A
O3482     Eu3483   2.470       .  S
Eu3483     O4029   2.457       .  S
Eu3483     O3493   2.352       .  S
Eu3483     O4037   2.354       .  S
Eu3483     O3484   2.349       .  S
Eu3483     O4043   2.357       .  S
O3484     Eu3513   2.347       .  S
O3484     Eu3510   2.347       .  S
O3485     Eu4035   2.345   1_554  S
O3485     Eu4063   2.350       .  S
O3485     Eu3512   2.354       .  S
C3486      C4292   1.492       .  S
C3487      C4278   1.490       .  S
C3488      C3659   1.491       .  S
C3489      C3670   1.489       .  S
H3490      O3491   0.970       .  S
O3491     Eu4035   2.362   1_554  S
O3491     Eu3512   2.347       .  S
O3491     Eu4062   2.356   1_554  S
H3492      O3493   0.970       .  S
O3493     Eu3511   2.354       .  S
O3493     Eu3513   2.352       .  S
O3494      C3517   1.298       .  A
O3494     Eu3510   2.488       .  S
O3495      C3518   1.289       .  A
O3495     Eu3511   2.450       .  S
O3496      C3519   1.293       .  A
O3496     Eu3512   2.460       .  S
O3497      C3520   1.287       .  A
O3497     Eu3513   2.439       .  S
O3498      C3521   1.289       .  A
O3498     Eu3513   2.444       .  S
O3499      C3522   1.288       .  A
O3499     Eu3512   2.442       .  S
O3500      C3523   1.293       .  A
O3500     Eu4066   2.462       .  S
O3501      C3524   1.289       .  A
O3501     Eu3514   2.451       .  S
O3502      C3523   1.291       .  A
O3502     Eu3512   2.465       .  S
O3503      C3524   1.294       .  A
O3503     Eu3513   2.462       .  S
O3504      C3519   1.288       .  A
O3504     Eu4062   2.443   1_554  S
O3505      C3522   1.293       .  A
O3505     Eu4063   2.458       .  S
O3506      C3521   1.290       .  A
O3506     Eu3511   2.450       .  S
O3507      C3520   1.292       .  A
O3507     Eu3510   2.454       .  S
O3508      C3517   1.287       .  A
O3508     Eu3514   2.441       .  S
O3509      C3518   1.292       .  A
O3509     Eu3514   2.459       .  S
Eu3510     O4056   2.456       .  S
Eu3510     O4043   2.353       .  S
Eu3510     O3528   2.353       .  S
Eu3510     O4068   2.353       .  S
Eu3511     O4057   2.450       .  S
Eu3511     O4037   2.357       .  S
Eu3511     O3515   2.342       .  S
Eu3511     O4078   2.356       .  S
Eu3512     O3526   2.358       .  S
Eu3512     O3516   2.342       .  S
Eu3513     O3515   2.345       .  S
Eu3513     O3528   2.353       .  S
Eu3514     O4052   2.466       .  S
Eu3514     O3515   2.345       .  S
Eu3514     O4078   2.346       .  S
Eu3514     O3528   2.360       .  S
Eu3514     O4068   2.350       .  S
O3516     Eu4062   2.350   1_554  S
O3516     Eu4066   2.352       .  S
C3517      C4250   1.493       .  S
C3518      C4267   1.477       .  S
C3519      C3544   1.488       .  S
C3520      C3561   1.478       .  S
C3521      C3575   1.473       .  S
C3522      C3533   1.479       .  S
C3523      C3645   1.490       .  S
C3524      C3687   1.489       .  S
H3525      O3526   0.971       .  S
O3526     Eu4063   2.352       .  S
O3526     Eu4066   2.340       .  S
H3527      O3528   0.978       .  S
C3529      C3530   1.404       .  A
C3529      C3534   1.396       .  A
C3529      H3536   1.083       .  S
C3530      C3531   1.416       .  A
C3531      C3532   1.397       .  A
C3531      N3538   1.428       .  S
C3532      C3533   1.402       .  A
C3532      H3537   1.083       .  S
C3533      C3534   1.414       .  A
C3534      N3535   1.429       .  S
N3535      O3539   1.262       .  A
N3535      O3540   1.262       .  A
N3538      O3542   1.262       .  A
N3538      O3541   1.262       .  A
C3543      C3544   1.405       .  A
C3543      C3548   1.395       .  A
C3543      H3550   1.084       .  S
C3544      C3545   1.417       .  A
C3545      C3546   1.396       .  A
C3545      N3552   1.428       .  S
C3546      C3547   1.404       .  A
C3546      H3551   1.084       .  S
C3547      C3548   1.416       .  A
C3548      N3549   1.428       .  S
N3549      O3553   1.262       .  A
N3549      O3554   1.262       .  A
N3552      O3556   1.261       .  A
N3552      O3555   1.262       .  A
C3557      C3558   1.403       .  A
C3557      C3562   1.395       .  A
C3557      H3564   1.081       .  S
C3558      C3559   1.412       .  A
C3559      C3560   1.396       .  A
C3559      N3566   1.427       .  S
C3560      C3561   1.403       .  A
C3560      H3565   1.084       .  S
C3561      C3562   1.413       .  A
C3562      N3563   1.429       .  S
N3563      O3567   1.262       .  A
N3563      O3568   1.262       .  A
N3566      O3570   1.262       .  A
N3566      O3569   1.262       .  A
C3571      C3572   1.410       .  A
C3571      C3576   1.405       .  A
C3571      H3578   1.084       .  S
C3572      C3573   1.419       .  A
C3573      C3574   1.396       .  A
C3573      N3580   1.427       .  S
C3574      C3575   1.395       .  A
C3574      H3579   1.084       .  S
C3575      C3576   1.408       .  A
C3576      N3577   1.431       .  S
N3577      O3581   1.263       .  A
N3577      O3582   1.262       .  A
N3580      O3584   1.262       .  A
N3580      O3583   1.262       .  A
C3585      C3586   1.401       .  A
C3585      C3590   1.397       .  A
C3585      H3592   1.084       .  S
C3586      C3587   1.417       .  A
C3587      C3588   1.403       .  A
C3587      N3594   1.429       .  S
C3588      C3589   1.405       .  A
C3588      H3593   1.083       .  S
C3589      C3590   1.413       .  A
C3590      N3591   1.426       .  S
N3591      O3595   1.262       .  A
N3591      O3596   1.262       .  A
N3594      O3598   1.262       .  A
N3594      O3597   1.262       .  A
C3599      C3600   1.403       .  A
C3599      C3604   1.402       .  A
C3599      H3606   1.084       .  S
C3600      C3601   1.416       .  A
C3601      C3602   1.399       .  A
C3601      N3608   1.426       .  S
C3602      C3603   1.399       .  A
C3602      H3607   1.080       .  S
C3603      C3604   1.418       .  A
C3604      N3605   1.428       .  S
N3605      O3609   1.262       .  A
N3605      O3610   1.262       .  A
N3608      O3612   1.261       .  A
N3608      O3611   1.262       .  A
C3613      C3614   1.406       .  A
C3613      C3618   1.400       .  A
C3613      H3620   1.084       .  S
C3614      C3615   1.417       .  A
C3615      C3616   1.398       .  A
C3615      N3622   1.428       .  S
C3616      C3617   1.403       .  A
C3616      H3621   1.084       .  S
C3617      C3618   1.417       .  A
C3618      N3619   1.429       .  S
N3619      O3623   1.262       .  A
N3619      O3624   1.262       .  A
N3622      O3626   1.262       .  A
N3622      O3625   1.262       .  A
C3627      C3628   1.404       .  A
C3627      C3632   1.401       .  A
C3627      H3634   1.084       .  S
C3628      C3629   1.416       .  A
C3629      C3630   1.400       .  A
C3629      N3636   1.426       .  S
C3630      C3631   1.402       .  A
C3630      H3635   1.084       .  S
C3631      C3632   1.416       .  A
C3632      N3633   1.428       .  S
N3633      O3637   1.262       .  A
N3633      O3638   1.262       .  A
N3636      O3640   1.261       .  A
N3636      O3639   1.262       .  A
C3641      C3642   1.406       .  A
C3641      C3646   1.400       .  A
C3641      H3648   1.084       .  S
C3642      C3643   1.414       .  A
C3643      C3644   1.400       .  A
C3643      N3650   1.428       .  S
C3644      C3645   1.407       .  A
C3644      H3649   1.084       .  S
C3645      C3646   1.415       .  A
C3646      N3647   1.428       .  S
N3647      O3651   1.262       .  A
N3647      O3652   1.262       .  A
N3650      O3654   1.261       .  A
N3650      O3653   1.262       .  A
C3655      C3656   1.407       .  A
C3655      C3660   1.398       .  A
C3655      H3662   1.084       .  S
C3656      C3657   1.416       .  A
C3657      C3658   1.397       .  A
C3657      N3664   1.428       .  S
C3658      C3659   1.406       .  A
C3658      H3663   1.084       .  S
C3659      C3660   1.417       .  A
C3660      N3661   1.429       .  S
N3661      O3665   1.262       .  A
N3661      O3666   1.262       .  A
N3664      O3668   1.262       .  A
N3664      O3667   1.262       .  A
C3669      C3670   1.406       .  A
C3669      C3674   1.400       .  A
C3669      H3676   1.084       .  S
C3670      C3671   1.414       .  A
C3671      C3672   1.400       .  A
C3671      N3678   1.428       .  S
C3672      C3673   1.406       .  A
C3672      H3677   1.084       .  S
C3673      C3674   1.416       .  A
C3674      N3675   1.429       .  S
N3675      O3679   1.262       .  A
N3675      O3680   1.262       .  A
N3678      O3682   1.262       .  A
N3678      O3681   1.262       .  A
C3683      C3684   1.404       .  A
C3683      C3688   1.398       .  A
C3683      H3690   1.084       .  S
C3684      C3685   1.417       .  A
C3685      C3686   1.397       .  A
C3685      N3692   1.427       .  S
C3686      C3687   1.404       .  A
C3686      H3691   1.083       .  S
C3687      C3688   1.417       .  A
C3688      N3689   1.428       .  S
N3689      O3693   1.262       .  A
N3689      O3694   1.261       .  A
N3692      O3696   1.261       .  A
N3692      O3695   1.262       .  A
C3697      C4250   1.402       .  A
C3697      C3702   1.400       .  A
C3697      H3704   1.082       .  S
C3698      C4069   1.491       .  S
C3698      C4249   1.402       .  A
C3698      C3699   1.418   1_554  A
C3699      C3700   1.400       .  A
C3699      N3706   1.428       .  S
C3700      C3701   1.404   1_556  A
C3700      H3705   1.084       .  S
C3701      C4254   1.417       .  A
C3702      C4253   1.419       .  A
C3702      N3703   1.428       .  S
N3703      O3707   1.261       .  A
N3703      O4260   1.262       .  A
N3706      O3710   1.262       .  A
N3706      O4261   1.262       .  A
O3708      N4255   1.262       .  A
O3709      N4258   1.261       .  A
C3711      C4264   1.400       .  A
C3711      C3716   1.397       .  A
C3711      H3718   1.080       .  S
C3712      C4263   1.404   1_554  A
C3712      C3713   1.417       .  A
C3713      C3714   1.398       .  A
C3713      N3720   1.428       .  S
C3714      C3715   1.406       .  A
C3714      H3719   1.084       .  S
C3715      C4070   1.493       .  S
C3715      C4268   1.417   1_554  A
C3716      C4267   1.413       .  A
C3716      N3717   1.429       .  S
N3717      O3721   1.262       .  A
N3717      O4274   1.262       .  A
N3720      O3724   1.262       .  A
N3720      O4275   1.260   1_554  A
O3722      N4269   1.262   1_554  A
O3723      N4272   1.262       .  A
C3725      C4278   1.403       .  A
C3725      C3730   1.401       .  A
C3725      H3732   1.084       .  S
C3726      C4039   1.488       .  S
C3726      C4277   1.402   1_556  A
C3726      C3727   1.417       .  A
C3727      C3728   1.400       .  A
C3727      N3734   1.428       .  S
C3728      C3729   1.403       .  A
C3728      H3733   1.084       .  S
C3729      C4282   1.416   1_556  A
C3730      C4281   1.415       .  A
C3730      N3731   1.427       .  S
N3731      O3735   1.262       .  A
N3731      O3736   1.262       .  A
N3734      O3738   1.262       .  A
N3734      O3737   1.262       .  A
C3739      C3740   1.403       .  A
C3739      C3744   1.399       .  A
C3739      H3746   1.083       .  S
C3740      C4038   1.493       .  S
C3740      C4293   1.420       .  A
C3741      C4292   1.418       .  A
C3741      C3742   1.397       .  A
C3741      N3748   1.428       .  S
C3742      C4295   1.404       .  A
C3742      H3747   1.084       .  S
C3743      C4294   1.404       .  A
C3743      C3744   1.419       .  A
C3744      N3745   1.427       .  S
N3745      O3749   1.261       .  A
N3745      O4302   1.261   1_554  A
N3748      O3752   1.262       .  A
N3748      O4303   1.262       .  A
O3750      N4297   1.262       .  A
O3751      N4300   1.262   1_554  A
C3753      C3758   1.401       .  A
C3753      H3760   1.084       .  S
C3754      C3755   1.421       .  A
C3755      C3756   1.402       .  A
C3755      N3762   1.429       .  S
C3756      C3757   1.406       .  A
C3756      H3761   1.083       .  S
C3758      N3759   1.427       .  S
N3759      O3764   1.262       .  A
N3762      O3765   1.262       .  A
C3767      C3768   1.405       .  A
C3767      C3772   1.403       .  A
C3767      H3774   1.084       .  S
C3769      C3770   1.398       .  A
C3769      N3776   1.428       .  S
C3770      H3775   1.084       .  S
C3771      C3772   1.418       .  A
C3772      N3773   1.428       .  S
N3773      O3778   1.262       .  A
N3776      O3779   1.262       .  A
C3781      C3786   1.397       .  A
C3781      H3788   1.084       .  S
C3782      C3783   1.415       .  A
C3783      C3784   1.398       .  A
C3783      N3790   1.430       .  S
C3784      C3785   1.400       .  A
C3784      H3789   1.076       .  S
C3786      N3787   1.428       .  S
N3787      O3791   1.262       .  A
N3790      O3794   1.262       .  A
C3795      C3796   1.403       .  A
C3795      C3800   1.395       .  A
C3795      H3802   1.084       .  S
C3797      C3798   1.394       .  A
C3797      N3804   1.428       .  S
C3798      H3803   1.084       .  S
C3799      C3800   1.414       .  A
C3800      N3801   1.428       .  S
N3801      O3805   1.262       .  A
N3804      O3808   1.262       .  A
C3809      C3814   1.395       .  A
C3809      H3816   1.084       .  S
C3810      C3811   1.415       .  A
C3811      C3812   1.398       .  A
C3811      N3818   1.429       .  S
C3812      C3813   1.406       .  A
C3812      H3817   1.084       .  S
C3814      N3815   1.429       .  S
N3815      O3819   1.262       .  A
N3815      O3820   1.262       .  A
N3818      O3822   1.262       .  A
N3818      O3821   1.262       .  A
C3823      C3824   1.402       .  A
C3823      C3828   1.398       .  A
C3823      H3830   1.084       .  S
C3825      C3826   1.400       .  A
C3825      N3832   1.428       .  S
C3826      H3831   1.084       .  S
C3827      C3828   1.415       .  A
C3828      N3829   1.428       .  S
N3829      O3833   1.262       .  A
N3829      O3834   1.262       .  A
N3832      O3836   1.262       .  A
N3832      O3835   1.262       .  A
C3837      C3838   1.396       .  A
C3837      C3842   1.392       .  A
C3837      H3844   1.082       .  S
C3839      C3840   1.402       .  A
C3839      N3846   1.429       .  S
C3840      H3845   1.084       .  S
C3841      C3842   1.418       .  A
C3842      N3843   1.427       .  S
N3843      O3847   1.262       .  A
N3843      O3848   1.262       .  A
N3846      O3850   1.262       .  A
N3846      O3849   1.262       .  A
C3851      C3852   1.401       .  A
C3851      C3856   1.399       .  A
C3851      H3858   1.081       .  S
C3853      C3854   1.398       .  A
C3853      N3860   1.429       .  S
C3854      H3859   1.084       .  S
C3855      C3856   1.412       .  A
C3856      N3857   1.427       .  S
N3857      O3861   1.262       .  A
N3857      O3862   1.262       .  A
N3860      O3864   1.262       .  A
N3860      O3863   1.262       .  A
O3865      C3876   1.288       .  A
O3865     Eu3901   2.443       .  S
O3866      C3877   1.293       .  A
O3866     Eu3900   2.459       .  S
O3867      C3878   1.288       .  A
O3867     Eu3873   2.446       .  S
O3868      C3879   1.288       .  A
O3869      C3879   1.292       .  A
O3869     Eu3903   2.460       .  S
O3870      C3878   1.294       .  A
O3870     Eu3902   2.465       .  S
O3871      C3877   1.289       .  A
O3872      C3876   1.292       .  A
O3872     Eu3873   2.457       .  S
Eu3873     O3875   2.352       .  S
O3875     Eu3901   2.358       .  S
O3875     Eu3902   2.346       .  S
C3876      C4404   1.481       .  S
C3877      C4362   1.482       .  S
C3878      C4295   1.490       .  S
C3879      C4264   1.477       .  S
H3880      O3881   0.962       .  S
O3881     Eu3900   2.360       .  S
H3882      O3883   0.962       .  S
O3883     Eu3903   2.351       .  S
O3884      C3907   1.292       .  A
O3885      C3908   1.290       .  A
O3886      C3909   1.290       .  A
O3887      C3910   1.291       .  A
O3888      C3911   1.292       .  A
O3888     Eu3903   2.458       .  S
O3889      C3912   1.294       .  A
O3889     Eu3902   2.467       .  S
O3890      C3913   1.295       .  A
O3890     Eu3904   2.474       .  S
O3891      C3914   1.297       .  A
O3892      C3913   1.293       .  A
O3893      C3914   1.288       .  A
O3894      C3909   1.296       .  A
O3894     Eu3900   2.477       .  S
O3895      C3912   1.287       .  A
O3895     Eu3901   2.439       .  S
O3896      C3911   1.290       .  A
O3897      C3910   1.295       .  A
O3898      C3907   1.294       .  A
O3899      C3908   1.293       .  A
O3899     Eu3904   2.466       .  S
Eu3904     O3916   2.357       .  S
C3907      C4379   1.488       .  S
C3908      C4393   1.482       .  S
C3909      C4320   1.491       .  S
C3910      C4309   1.494       .  S
C3911      C4348   1.482       .  S
C3912      C4337   1.483       .  S
C3913      C4281   1.489       .  S
C3914      C4253   1.493       .  S
H3915      O3916   0.964       .  S
H3917      O3918   0.960       .  S
O3919      C3930   1.292       .  A
O3919     Eu3955   2.468       .  S
O3920      C3931   1.292       .  A
O3920     Eu3954   2.453       .  S
O3921      C3932   1.288       .  A
O3921     Eu3927   2.445       .  S
O3922      C3933   1.290       .  A
O3923      C3933   1.294       .  A
O3923     Eu3957   2.467       .  S
O3924      C3932   1.293       .  A
O3924     Eu3956   2.459       .  S
O3925      C3931   1.288       .  A
O3925     Eu3927   2.447       .  S
O3926      C3930   1.289       .  A
O3926     Eu3927   2.439       .  S
Eu3927     O3929   2.346       .  S
Eu3927     O3935   2.352       .  S
O3928     Eu3957   2.354       .  S
O3929     Eu3955   2.336       .  S
O3929     Eu3956   2.349       .  S
C3930      C4407   1.484       .  S
C3931      C4365   1.481       .  S
C3932      C4169   1.485       .  S
C3933      C4138   1.483       .  S
H3934      O3935   0.967       .  S
O3935     Eu3956   2.351       .  S
O3935     Eu3954   2.348       .  S
H3936      O3937   0.965       .  S
O3937     Eu3957   2.354       .  S
O3938      C3961   1.289       .  A
O3938     Eu3954   2.450       .  S
O3939      C3962   1.288       .  A
O3939     Eu3955   2.436       .  S
O3940      C3963   1.293       .  A
O3940     Eu3956   2.457       .  S
O3941      C3964   1.293       .  A
O3941     Eu3957   2.467       .  S
O3942      C3965   1.294       .  A
O3942     Eu3957   2.463       .  S
O3943      C3966   1.288       .  A
O3943     Eu3956   2.446       .  S
O3944      C3967   1.289       .  A
O3944     Eu3958   2.453       .  S
O3945      C3968   1.289       .  A
O3946      C3967   1.296       .  A
O3946     Eu3956   2.476       .  S
O3947      C3968   1.295       .  A
O3947     Eu3957   2.469       .  S
O3948      C3963   1.293       .  A
O3948     Eu3954   2.469       .  S
O3949      C3966   1.294       .  A
O3949     Eu3955   2.468       .  S
O3950      C3965   1.291       .  A
O3951      C3964   1.292       .  A
O3952      C3961   1.295       .  A
O3952     Eu3958   2.472       .  S
O3953      C3962   1.290       .  A
O3953     Eu3958   2.444       .  S
Eu3954     O3960   2.358       .  S
Eu3955     O3970   2.359       .  S
Eu3956     O3970   2.347       .  S
Eu3956     O3960   2.348       .  S
Eu3957     O3959   2.345       .  S
Eu3957     O3972   2.356       .  S
Eu3958     O3970   2.358       .  S
Eu3958     O3960   2.349       .  S
C3961      C4376   1.487       .  S
C3962      C4390   1.469       .  S
C3963      C4225   1.485       .  S
C3964      C4236   1.487       .  S
C3965      C4194   1.490       .  S
C3966      C4208   1.487       .  S
C3967      C4180   1.493       .  S
C3968      C4155   1.490       .  S
H3969      O3970   0.966       .  S
H3971      O3972   0.964       .  S
O3973      C3984   1.293       .  A
O3973     Eu4009   2.459       .  S
O3974      C3985   1.292       .  A
O3974     Eu4008   2.454   1_565  S
O3975      C3986   1.292       .  A
O3975     Eu3981   2.457       .  S
O3976      C3987   1.287       .  A
O3977      C3987   1.292       .  A
O3977     Eu4011   2.454       .  S
O3978      C3986   1.289       .  A
O3978     Eu4010   2.452       .  S
O3979      C3985   1.288       .  A
O3979     Eu3981   2.449       .  S
O3980      C3984   1.288       .  A
O3980     Eu3981   2.447   1_545  S
Eu3981     O3983   2.352       .  S
Eu3981     O3989   2.350       .  S
O3982     Eu4011   2.353       .  S
O3983     Eu4009   2.351   1_565  S
O3983     Eu4010   2.356       .  S
C3986      C4099   1.491       .  S
C3987      C4082   1.475       .  S
H3988      O3989   0.965       .  S
O3989     Eu4010   2.357       .  S
O3989     Eu4008   2.348   1_565  S
H3990      O3991   0.968       .  S
O3991     Eu4011   2.361       .  S
O3992      C4015   1.287       .  A
O3992     Eu4008   2.439   1_565  S
O3993      C4016   1.291       .  A
O3993     Eu4009   2.458       .  S
O3994      C4017   1.288       .  A
O3994     Eu4010   2.448       .  S
O3995      C4018   1.288       .  A
O3995     Eu4011   2.445       .  S
O3996      C4019   1.288       .  A
O3996     Eu4011   2.447       .  S
O3997      C4020   1.289       .  A
O3997     Eu4010   2.448       .  S
O3998      C4021   1.287       .  A
O3998     Eu4012   2.440   1_565  S
O3999      C4022   1.290       .  A
O4000      C4021   1.292       .  A
O4000     Eu4010   2.455       .  S
O4001      C4022   1.294       .  A
O4001     Eu4011   2.473       .  S
O4002      C4017   1.296       .  A
O4002     Eu4008   2.479   1_565  S
O4003      C4020   1.296       .  A
O4003     Eu4009   2.477   1_565  S
O4004      C4019   1.296       .  A
O4005      C4018   1.295       .  A
O4006      C4015   1.296       .  A
O4006     Eu4012   2.473   1_565  S
O4007      C4016   1.297       .  A
O4007     Eu4012   2.482       .  S
Eu4008     O4014   2.348   1_545  S
Eu4009     O4024   2.357   1_545  S
Eu4010     O4024   2.355       .  S
Eu4010     O4014   2.342       .  S
Eu4011     O4013   2.342       .  S
Eu4011     O4026   2.349       .  S
Eu4012     O4024   2.358   1_545  S
Eu4012     O4014   2.345   1_545  S
C4017      C4183   1.492       .  S
C4018      C4166   1.490       .  S
C4019      C4141   1.483       .  S
C4020      C4152   1.492       .  S
C4021      C4110   1.477       .  S
C4022      C4124   1.486       .  S
H4023      O4024   0.964       .  S
H4025      O4026   0.964       .  S
O4027      C4038   1.286       .  A
O4027     Eu4063   2.437       .  S
O4028      C4039   1.296       .  A
O4028     Eu4062   2.479       .  S
O4029      C4040   1.290       .  A
O4030      C4041   1.292       .  A
O4030     Eu4035   2.455       .  S
O4031      C4041   1.293       .  A
O4031     Eu4065   2.476       .  S
O4032      C4040   1.294       .  A
O4032     Eu4064   2.464       .  S
O4033      C4039   1.289       .  A
O4033     Eu4035   2.449       .  S
O4034      C4038   1.296       .  A
O4034     Eu4035   2.478   1_554  S
Eu4035     O4045   2.345       .  S
Eu4035     O4036   2.355       .  S
O4036     Eu4065   2.341       .  S
O4036     Eu4062   2.347       .  S
O4037     Eu4064   2.361       .  S
C4040      C4211   1.486       .  S
C4041      C4222   1.486       .  S
H4042      O4043   0.969       .  S
O4043     Eu4064   2.349       .  S
H4044      O4045   0.969       .  S
O4045     Eu4063   2.357   1_556  S
O4045     Eu4065   2.360       .  S
O4046      C4069   1.297   1_556  A
O4046     Eu4062   2.482       .  S
O4047      C4070   1.289       .  A
O4047     Eu4063   2.454       .  S
O4048      C4071   1.293       .  A
O4048     Eu4064   2.458       .  S
O4049      C4072   1.289       .  A
O4049     Eu4065   2.452       .  S
O4050      C4073   1.285       .  A
O4050     Eu4065   2.423       .  S
O4051      C4074   1.290       .  A
O4051     Eu4064   2.454       .  S
O4052      C4075   1.294       .  A
O4053      C4076   1.288       .  A
O4053     Eu4066   2.444   1_556  S
O4054      C4075   1.291       .  A
O4054     Eu4064   2.465       .  S
O4055      C4076   1.295       .  A
O4055     Eu4065   2.467       .  S
O4056      C4071   1.290       .  A
O4057      C4074   1.291       .  A
O4058      C4073   1.292       .  A
O4058     Eu4063   2.459   1_556  S
O4059      C4072   1.290       .  A
O4059     Eu4062   2.443       .  S
O4060      C4069   1.289       .  A
O4060     Eu4066   2.447       .  S
O4061      C4070   1.294       .  A
O4061     Eu4066   2.465       .  S
Eu4062     O4080   2.347       .  S
Eu4063     O4067   2.346   1_554  S
Eu4064     O4078   2.359       .  S
Eu4064     O4068   2.346       .  S
Eu4065     O4067   2.355       .  S
Eu4065     O4080   2.346       .  S
Eu4066     O4067   2.346   1_554  S
Eu4066     O4080   2.363   1_554  S
C4071      C4096   1.491       .  S
C4072      C4113   1.476       .  S
C4073      C4127   1.470       .  S
C4074      C4085   1.477       .  S
C4075      C4197   1.493       .  S
C4076      C4239   1.486       .  S
H4077      O4078   0.971       .  S
H4079      O4080   0.978       .  S
C4081      C4082   1.402       .  A
C4081      C4086   1.394       .  A
C4081      H4088   1.084       .  S
C4082      C4083   1.413       .  A
C4083      C4084   1.395       .  A
C4083      N4090   1.429       .  S
C4084      C4085   1.403       .  A
C4084      H4089   1.083       .  S
C4085      C4086   1.413       .  A
C4086      N4087   1.428       .  S
N4087      O4091   1.262       .  A
N4087      O4092   1.262       .  A
N4090      O4094   1.262       .  A
N4090      O4093   1.262       .  A
C4095      C4096   1.405       .  A
C4095      C4100   1.396       .  A
C4095      H4102   1.084       .  S
C4096      C4097   1.416       .  A
C4097      C4098   1.397       .  A
C4097      N4104   1.427       .  S
C4098      C4099   1.405       .  A
C4098      H4103   1.084       .  S
C4099      C4100   1.415       .  A
C4100      N4101   1.425       .  S
N4101      O4105   1.261       .  A
N4101      O4106   1.261       .  A
N4104      O4108   1.261       .  A
N4104      O4107   1.262       .  A
C4109      C4110   1.400       .  A
C4109      C4114   1.393       .  A
C4109      H4116   1.078       .  S
C4110      C4111   1.412       .  A
C4111      C4112   1.397       .  A
C4111      N4118   1.428       .  S
C4112      C4113   1.405       .  A
C4112      H4117   1.084       .  S
C4113      C4114   1.411       .  A
C4114      N4115   1.428       .  S
N4115      O4119   1.262       .  A
N4115      O4120   1.262       .  A
N4118      O4122   1.262       .  A
N4118      O4121   1.262       .  A
C4123      C4124   1.407       .  A
C4123      C4128   1.402       .  A
C4123      H4130   1.079       .  S
C4124      C4125   1.415       .  A
C4125      C4126   1.393       .  A
C4125      N4132   1.425       .  S
C4126      C4127   1.393       .  A
C4126      H4131   1.079       .  S
C4127      C4128   1.409       .  A
C4128      N4129   1.431       .  S
N4129      O4133   1.262       .  A
N4129      O4134   1.262       .  A
N4132      O4136   1.262       .  A
N4132      O4135   1.262       .  A
C4137      C4138   1.402       .  A
C4137      C4142   1.400       .  A
C4137      H4144   1.084       .  S
C4138      C4139   1.414       .  A
C4139      C4140   1.400       .  A
C4139      N4146   1.428       .  S
C4140      C4141   1.402       .  A
C4140      H4145   1.084       .  S
C4141      C4142   1.416       .  A
C4142      N4143   1.429       .  S
N4143      O4147   1.262       .  A
N4143      O4148   1.262       .  A
N4146      O4150   1.262       .  A
N4146      O4149   1.262       .  A
C4151      C4152   1.405       .  A
C4151      C4156   1.401       .  A
C4151      H4158   1.084       .  S
C4152      C4153   1.417       .  A
C4153      C4154   1.396       .  A
C4153      N4160   1.425       .  S
C4154      C4155   1.401       .  A
C4154      H4159   1.083       .  S
C4155      C4156   1.417       .  A
C4156      N4157   1.428       .  S
N4157      O4161   1.262       .  A
N4157      O4162   1.262       .  A
N4160      O4164   1.260       .  A
N4160      O4163   1.261       .  A
C4165      C4166   1.405       .  A
C4165      C4170   1.398       .  A
C4165      H4172   1.084       .  S
C4166      C4167   1.418       .  A
C4167      C4168   1.395       .  A
C4167      N4174   1.427       .  S
C4168      C4169   1.402       .  A
C4168      H4173   1.084       .  S
C4169      C4170   1.416       .  A
C4170      N4171   1.429       .  S
N4171      O4175   1.262       .  A
N4171      O4176   1.262       .  A
N4174      O4178   1.261       .  A
N4174      O4177   1.262       .  A
C4179      C4180   1.404       .  A
C4179      C4184   1.400       .  A
C4179      H4186   1.084       .  S
C4180      C4181   1.417       .  A
C4181      C4182   1.398       .  A
C4181      N4188   1.425       .  S
C4182      C4183   1.402       .  A
C4182      H4187   1.084       .  S
C4183      C4184   1.418       .  A
C4184      N4185   1.428       .  S
N4185      O4189   1.262       .  A
N4185      O4190   1.261       .  A
N4188      O4192   1.260       .  A
N4188      O4191   1.262       .  A
C4193      C4194   1.405       .  A
C4193      C4198   1.401       .  A
C4193      H4200   1.084       .  S
C4194      C4195   1.415       .  A
C4195      C4196   1.400       .  A
C4195      N4202   1.428       .  S
C4196      C4197   1.406       .  A
C4196      H4201   1.084       .  S
C4197      C4198   1.417       .  A
C4198      N4199   1.428       .  S
N4199      O4203   1.262       .  A
N4199      O4204   1.262       .  A
N4202      O4206   1.261       .  A
N4202      O4205   1.262       .  A
C4207      C4208   1.404       .  A
C4207      C4212   1.400       .  A
C4207      H4214   1.084       .  S
C4208      C4209   1.417       .  A
C4209      C4210   1.397       .  A
C4209      N4216   1.429       .  S
C4210      C4211   1.403       .  A
C4210      H4215   1.084       .  S
C4211      C4212   1.416       .  A
C4212      N4213   1.429       .  S
N4213      O4217   1.262       .  A
N4213      O4218   1.262       .  A
N4216      O4220   1.262       .  A
N4216      O4219   1.262       .  A
C4221      C4222   1.406       .  A
C4221      C4226   1.401       .  A
C4221      H4228   1.084       .  S
C4222      C4223   1.413       .  A
C4223      C4224   1.400       .  A
C4223      N4230   1.428       .  S
C4224      C4225   1.404       .  A
C4224      H4229   1.084       .  S
C4225      C4226   1.414       .  A
C4226      N4227   1.429       .  S
N4227      O4231   1.262       .  A
N4227      O4232   1.262       .  A
N4230      O4234   1.262       .  A
N4230      O4233   1.262       .  A
C4235      C4236   1.406       .  A
C4235      C4240   1.401       .  A
C4235      H4242   1.084       .  S
C4236      C4237   1.413       .  A
C4237      C4238   1.395       .  A
C4237      N4244   1.427       .  S
C4238      C4239   1.402       .  A
C4238      H4243   1.082       .  S
C4239      C4240   1.417       .  A
C4240      N4241   1.429       .  S
N4241      O4245   1.262       .  A
N4241      O4246   1.262       .  A
N4244      O4248   1.262       .  A
N4244      O4247   1.262       .  A
C4249      C4254   1.398       .  A
C4249      H4256   1.080       .  S
C4250      C4251   1.419       .  A
C4251      C4252   1.399       .  A
C4251      N4258   1.426       .  S
C4252      C4253   1.402       .  A
C4252      H4257   1.084       .  S
C4254      N4255   1.429       .  S
N4255      O4259   1.262       .  A
N4258      O4262   1.262       .  A
C4263      C4268   1.398       .  A
C4263      H4270   1.083       .  S
C4264      C4265   1.412       .  A
C4265      C4266   1.398       .  A
C4265      N4272   1.428       .  S
C4266      C4267   1.403       .  A
C4266      H4271   1.084       .  S
C4268      N4269   1.427       .  S
N4269      O4273   1.261       .  A
N4272      O4276   1.262       .  A
C4277      C4282   1.399       .  A
C4277      H4284   1.084       .  S
C4278      C4279   1.417       .  A
C4279      C4280   1.404       .  A
C4279      N4286   1.429       .  S
C4280      C4281   1.404       .  A
C4280      H4285   1.084       .  S
C4282      N4283   1.426       .  S
N4283      O4287   1.261       .  A
N4283      O4288   1.262       .  A
N4286      O4290   1.262       .  A
N4286      O4289   1.262       .  A
C4291      C4292   1.405       .  A
C4291      C4296   1.398       .  A
C4291      H4298   1.084       .  S
C4293      C4294   1.397       .  A
C4293      N4300   1.428   1_554  S
C4294      H4299   1.084       .  S
C4295      C4296   1.417       .  A
C4296      N4297   1.428       .  S
N4297      O4301   1.262       .  A
N4300      O4304   1.262       .  A
C4305      C4310   1.403       .  A
C4305      H4312   1.084       .  S
C4306      C4307   1.417       .  A
C4307      C4308   1.401       .  A
C4307      N4314   1.428       .  S
C4308      C4309   1.405       .  A
C4308      H4313   1.084       .  S
C4310      N4311   1.428       .  S
N4311      O4316   1.262       .  A
N4314      O4317   1.262       .  A
C4319      C4320   1.403       .  A
C4319      C4324   1.400       .  A
C4319      H4326   1.081       .  S
C4321      C4322   1.395       .  A
C4321      N4328   1.425       .  S
C4322      H4327   1.084       .  S
C4323      C4324   1.418       .  A
C4324      N4325   1.429       .  S
N4325      O4330   1.262       .  A
N4328      O4331   1.262   1_545  A
C4333      C4338   1.394       .  A
C4333      H4340   1.084       .  S
C4334      C4335   1.414       .  A
C4335      C4336   1.395       .  A
C4335      N4342   1.429       .  S
C4336      C4337   1.400       .  A
C4336      H4341   1.080       .  S
C4338      N4339   1.425       .  S
N4339      O4343   1.260   1_545  A
N4342      O4346   1.262       .  A
C4347      C4348   1.403       .  A
C4347      C4352   1.399       .  A
C4347      H4354   1.084       .  S
C4349      C4350   1.396       .  A
C4349      N4356   1.430       .  S
C4350      H4355   1.084       .  S
C4351      C4352   1.416       .  A
C4352      N4353   1.429       .  S
N4353      O4357   1.262       .  A
N4356      O4360   1.261       .  A
C4361      C4366   1.395       .  A
C4361      H4368   1.084       .  S
C4362      C4363   1.414       .  A
C4363      C4364   1.394       .  A
C4363      N4370   1.427       .  S
C4364      C4365   1.403       .  A
C4364      H4369   1.084       .  S
C4366      N4367   1.427       .  S
N4367      O4371   1.262       .  A
N4367      O4372   1.262       .  A
N4370      O4374   1.262       .  A
N4370      O4373   1.262       .  A
C4375      C4376   1.402       .  A
C4375      C4380   1.397       .  A
C4375      H4382   1.084       .  S
C4377      C4378   1.397       .  A
C4377      N4384   1.428       .  S
C4378      H4383   1.084       .  S
C4379      C4380   1.414       .  A
C4380      N4381   1.426       .  S
N4381      O4385   1.261       .  A
N4381      O4386   1.262       .  A
N4384      O4388   1.262       .  A
N4384      O4387   1.262   1_655  A
C4389      C4390   1.390       .  A
C4389      C4394   1.391       .  A
C4389      H4396   1.076       .  S
C4391      C4392   1.402       .  A
C4391      N4398   1.429       .  S
C4392      H4397   1.084       .  S
C4393      C4394   1.414       .  A
C4394      N4395   1.425       .  S
N4395      O4399   1.261       .  A
N4395      O4400   1.263       .  A
N4398      O4402   1.261       .  A
N4398      O4401   1.262       .  A
C4403      C4404   1.404       .  A
C4403      C4408   1.398       .  A
C4403      H4410   1.084       .  S
C4405      C4406   1.396       .  A
C4405      N4412   1.428       .  S
C4406      H4411   1.082       .  S
C4407      C4408   1.411       .  A
C4408      N4409   1.427       .  S
N4409      O4413   1.262       .  A
N4409      O4414   1.262       .  A
N4412      O4416   1.262       .  A
N4412      O4415   1.261       .  A
