geometry optimzed in LAMMPS
_audit_creation_date              2020-11-30 
_audit_creation_method            'lammps2cif' 
_symmetry_space_group_name_H-M    'P1' 
_symmetry_Int_Tables_number       1 
_symmetry_cell_setting            triclinic 
loop_ 
_symmetry_equiv_pos_as_xyz 
  x,y,z 
_cell_length_a                    41.99767209 
_cell_length_b                    41.8419327556427 
_cell_length_c                    41.856455482731306 
_cell_angle_alpha                 89.93846987019813 
_cell_angle_beta                  90.03883289826925 
_cell_angle_gamma                 90.22051226868139 
loop_ 
_atom_site_label 
_atom_site_type_symbol 
_atom_site_fract_x 
_atom_site_fract_y 
_atom_site_fract_z 
_atom_site_charge 
Fe1        Fe  0.81847516  0.87246287  0.62731793     1.65800
Fe2        Fe  0.87478029  0.87332879  0.68610901     1.73200
Fe3        Fe  0.87633791  0.81567916  0.62835911     1.54400
O4          O  0.83304016  0.79347005  0.61848513    -0.82500
O5          O  0.92071304  0.87449203  0.66800066    -0.80800
O6          O  0.79504626  0.82936069  0.62745531    -0.85000
O7          O  0.83473855  0.86590316  0.58124016    -0.79900
O8          O  0.87631509  0.79166669  0.67124152    -0.81600
O9          O  0.86854295  0.91940724  0.66955576    -0.84400
C10         C  0.85844973  0.85271349  0.56804574     0.96400
C11         C  0.80397790  0.80101526  0.62200336     1.03800
O12         O  0.85666456  0.85389547  0.64721796    -1.13400
O13         O  0.83112993  0.87382672  0.70901970    -0.75800
O14         O  0.79588271  0.88139895  0.67013458    -0.79300
O15         O  0.87818569  0.83564151  0.58335381    -0.80000
C16         C  0.80288256  0.87867873  0.69945279     0.95300
O17         O  0.83837795  0.91725749  0.62597987    -0.77900
O18         O  0.88300397  0.82981099  0.70776460    -0.83100
C19         C  0.93609882  0.85481672  0.65094748     0.97900
C20         C  0.88052244  0.80065046  0.69985658     1.03800
O21         O  0.92225428  0.83204757  0.63630079    -0.78800
C22         C  0.85567124  0.93263152  0.64554262     1.02100
Fe23       Fe  0.63249823  0.81297234  0.87155504     1.65800
Fe24       Fe  0.69006349  0.87108710  0.86678497     1.73200
Fe25       Fe  0.63020628  0.86860232  0.81133040     1.54400
O26         O  0.62415213  0.82431372  0.79059301    -0.82500
O27         O  0.67160614  0.91681281  0.86458157    -0.80800
O28         O  0.62790142  0.78805199  0.82948151    -0.85000
O29         O  0.58614561  0.82926770  0.86851682    -0.79900
O30         O  0.67259067  0.87228133  0.78626723    -0.81600
O31         O  0.67499452  0.86841904  0.91352746    -0.84400
C32         C  0.57122646  0.84950383  0.85158368     0.96400
C33         C  0.62456398  0.79562207  0.80035921     1.03800
O34         O  0.65078705  0.85098266  0.84998283    -1.13400
O35         O  0.71347016  0.82802679  0.87035661    -0.75800
O36         O  0.67605766  0.79101063  0.87692958    -0.79300
O37         O  0.58503700  0.86654033  0.83066155    -0.80000
C38         C  0.70507711  0.79926639  0.87481637     0.95300
O39         O  0.63564464  0.83295080  0.91643390    -0.77900
O40         O  0.71096908  0.87598178  0.82252842    -0.83100
C41         C  0.65065859  0.93046266  0.84753499     0.97900
C42         C  0.70173476  0.87512280  0.79371408     1.03800
O43         O  0.63388812  0.91525166  0.82727758    -0.78800
C44         C  0.65436792  0.85299401  0.92939620     1.02100
Fe45       Fe  0.87450226  0.62902822  0.81000084     1.65800
Fe46       Fe  0.87380610  0.68661995  0.86725415     1.73200
Fe47       Fe  0.81711034  0.62843824  0.86709688     1.54400
O48         O  0.79650218  0.61694039  0.82355187    -0.82500
O49         O  0.87509204  0.66708013  0.91217007    -0.80800
O50         O  0.83183511  0.62931006  0.78600631    -0.85000
O51         O  0.86675866  0.58255632  0.82561654    -0.79900
O52         O  0.79281527  0.67071303  0.86512612    -0.81600
O53         O  0.92026556  0.67139081  0.86053758    -0.84400
C54         C  0.85392735  0.56893773  0.84959167     0.96400
C55         C  0.80385419  0.62167668  0.79454673     1.03800
O56         O  0.85531072  0.64795255  0.84822655    -1.13400
O57         O  0.87429056  0.71026352  0.82454917    -0.75800
O58         O  0.88429650  0.67270675  0.78854246    -0.79300
O59         O  0.83825548  0.58434552  0.87030184    -0.80000
C60         C  0.88087123  0.70179985  0.79628845     0.95300
O61         O  0.91912360  0.62763474  0.83045254    -0.77900
O62         O  0.82965948  0.70730540  0.87586854    -0.83100
C63         C  0.85439562  0.65105322  0.92736838     0.97900
C64         C  0.80072303  0.69919061  0.87153774     1.03800
O65         O  0.83106044  0.63755845  0.91359277    -0.78800
C66         C  0.93411840  0.64787772  0.84741816     1.02100
Fe67       Fe  0.69068085  0.63080124  0.62528504     1.65800
Fe68       Fe  0.63342601  0.62917134  0.68403142     1.73200
Fe69       Fe  0.63447243  0.68972599  0.62907839     1.54400
O70         O  0.67818412  0.71217397  0.62685662    -0.82500
O71         O  0.58733609  0.63363830  0.66681992    -0.80800
O72         O  0.71470108  0.67398345  0.62173329    -0.85000
O73         O  0.67310225  0.63570163  0.57946870    -0.79900
O74         O  0.62884279  0.71034309  0.67351353    -0.81600
O75         O  0.63490473  0.58461607  0.66411073    -0.84400
C76         C  0.65386090  0.65497322  0.56633152     0.96400
C77         C  0.70681750  0.70315164  0.62381380     1.03800
O78         O  0.65281394  0.64985809  0.64605970    -1.13400
O79         O  0.67677839  0.62279380  0.70660431    -0.75800
O80         O  0.71359949  0.62435447  0.66838308    -0.79300
O81         O  0.63787825  0.67513094  0.58216168    -0.80000
C82         C  0.70558795  0.62259725  0.69753469     0.95300
O83         O  0.67168765  0.58512228  0.62613870    -0.77900
O84         O  0.62984250  0.67091685  0.70917625    -0.83100
C85         C  0.57356856  0.65142182  0.64644473     0.97900
C86         C  0.62831141  0.70021498  0.70204636     1.03800
O87         O  0.58866654  0.67188755  0.62993361    -0.78800
C88         C  0.65061012  0.57070368  0.64252508     1.02100
Fe89       Fe  0.87420036  0.12965969  0.67975880     1.65800
Fe90       Fe  0.81453085  0.13072131  0.62439538     1.73200
Fe91       Fe  0.87380060  0.18734311  0.62175648     1.54400
O92         O  0.87920078  0.21051863  0.66477082    -0.82500
O93         O  0.82980347  0.13450982  0.57790904    -0.80800
O94         O  0.88019461  0.17280862  0.70223612    -0.85000
O95         O  0.91903530  0.13155015  0.66046086    -0.79900
O96         O  0.83077770  0.21059381  0.61750328    -0.81600
O97         O  0.83220873  0.08484998  0.62493782    -0.84400
C98         C  0.93369456  0.14828467  0.63991258     0.96400
C99         C  0.88111960  0.20187304  0.69371676     1.03800
O100        O  0.85421517  0.14921663  0.64191127    -1.13400
O101        O  0.79347855  0.12470088  0.66842967    -0.75800
O102        O  0.83210562  0.12530305  0.70461474    -0.79300
O103        O  0.91984152  0.16966884  0.62357785    -0.80000
C104        C  0.80293899  0.12346334  0.69711552     0.95300
O105        O  0.87023327  0.08425554  0.66177061    -0.77900
O106        O  0.79216677  0.17437067  0.62219763    -0.83100
C107        C  0.85112725  0.14961621  0.56273789     0.97900
C108        C  0.80157709  0.20306372  0.61933668     1.03800
O109        O  0.87007665  0.16891869  0.57641227    -0.78800
C110        C  0.85319146  0.07024581  0.64100522     1.02100
Fe111      Fe  0.87693713  0.37044759  0.80641412     1.65800
Fe112      Fe  0.81732762  0.37002647  0.86250486     1.73200
Fe113      Fe  0.87522370  0.31310687  0.86474931     1.54400
O114        O  0.87925278  0.28968460  0.82208277    -0.82500
O115        O  0.83198649  0.36522085  0.90987748    -0.80800
O116        O  0.88324061  0.32677605  0.78433342    -0.85000
O117        O  0.92235881  0.36943747  0.82576525    -0.79900
O118        O  0.83191460  0.28997569  0.87002624    -0.81600
O119        O  0.83612848  0.41556674  0.86240615    -0.84400
C120        C  0.93616567  0.35146726  0.84591225     0.96400
C121        C  0.88190906  0.29775340  0.79310804     1.03800
O122        O  0.85660633  0.35135746  0.84464339    -1.13400
O123        O  0.79650678  0.37692436  0.81818890    -0.75800
O124        O  0.83470147  0.37315348  0.78167555    -0.79300
O125        O  0.92110800  0.33041143  0.86162042    -0.80000
C126        C  0.80570551  0.37589514  0.78934940     0.95300
O127        O  0.87202314  0.41666244  0.82334247    -0.77900
O128        O  0.79419706  0.32659253  0.86344272    -0.83100
C129        C  0.85384261  0.35009370  0.92448520     0.97900
C130        C  0.80295245  0.29785020  0.86689086     1.03800
O131        O  0.87292529  0.33193325  0.90989970    -0.78800
C132        C  0.85594309  0.43052717  0.84491852     1.02100
Fe133      Fe  0.63370548  0.13080932  0.80713592     1.65800
Fe134      Fe  0.68891434  0.12853651  0.86708637     1.73200
Fe135      Fe  0.63317853  0.18740025  0.86538749     1.54400
O136        O  0.62440659  0.20947775  0.82238744    -0.82500
O137        O  0.66801971  0.12785336  0.91148407    -0.80800
O138        O  0.63431760  0.17428293  0.78410269    -0.85000
O139        O  0.58693028  0.13777113  0.82203736    -0.79900
O140        O  0.67642480  0.21034736  0.86528417    -0.81600
O141        O  0.67206692  0.08240139  0.85995112    -0.84400
C142        C  0.57310498  0.15160659  0.84529651     0.96400
C143        C  0.62820262  0.20241892  0.79326438     1.03800
O144        O  0.65177097  0.14868993  0.84662306    -1.13400
O145        O  0.71421411  0.12755059  0.82523671    -0.75800
O146        O  0.67799408  0.12271888  0.78679404    -0.79300
O147        O  0.58829731  0.16771489  0.86598888    -0.80000
C148        C  0.70676832  0.12448058  0.79611972     0.95300
O149        O  0.63174797  0.08498783  0.82557781    -0.77900
O150        O  0.71131478  0.17189003  0.87612459    -0.83100
C151        C  0.65183841  0.14863602  0.92611577     0.97900
C152        C  0.70449991  0.20104235  0.87128074     1.03800
O153        O  0.63939181  0.17215593  0.91170990    -0.78800
C154        C  0.64986651  0.06919130  0.84398283     1.02100
Fe155      Fe  0.63485161  0.37472315  0.68109588     1.65800
Fe156      Fe  0.69037706  0.37288536  0.62138349     1.73200
Fe157      Fe  0.63292589  0.31498145  0.62570271     1.54400
O158        O  0.62779168  0.29453703  0.67015167    -0.82500
O159        O  0.66957160  0.37138772  0.57677318    -0.80800
O160        O  0.63359069  0.33267137  0.70650168    -0.85000
O161        O  0.58827983  0.36879863  0.66646746    -0.79900
O162        O  0.67571083  0.29156065  0.62260811    -0.81600
O163        O  0.67424407  0.41922103  0.62565544    -0.84400
C164        C  0.57356797  0.35275895  0.64534073     0.96400
C165        C  0.62986941  0.30361084  0.69899599     1.03800
O166        O  0.65265130  0.35423997  0.64266897    -1.13400
O167        O  0.71540125  0.37573748  0.66349710    -0.75800
O168        O  0.67905053  0.38296117  0.70142900    -0.79300
O169        O  0.58757176  0.33320787  0.62713129    -0.80000
C170        C  0.70776101  0.38054378  0.69237398     0.95300
O171        O  0.63404927  0.41899417  0.65999192    -0.77900
O172        O  0.71220076  0.32931898  0.61458320    -0.83100
C173        C  0.65001442  0.35227089  0.56364298     0.97900
C174        C  0.70412292  0.30021956  0.61730734     1.03800
O175        O  0.63583792  0.33044450  0.57912919    -0.78800
C176        C  0.65186607  0.43332909  0.64013098     1.02100
Fe177      Fe  0.13534911  0.81394250  0.62529112     1.65800
Fe178      Fe  0.13620414  0.87120373  0.68332153     1.73200
Fe179      Fe  0.19144017  0.87291157  0.62383249     1.54400
O180        O  0.21616236  0.83066796  0.62349557    -0.82500
O181        O  0.14141996  0.91819859  0.66755658    -0.80800
O182        O  0.17909592  0.79351500  0.61498465    -0.85000
O183        O  0.13198029  0.83422257  0.58059023    -0.79900
O184        O  0.21409820  0.88305224  0.66637554    -0.81600
O185        O  0.09027397  0.87087612  0.66553173    -0.84400
C186        C  0.15076103  0.85229818  0.56510180     0.96400
C187        C  0.20798324  0.80197376  0.61822884     1.03800
O188        O  0.15416611  0.85280764  0.64407516    -1.13400
O189        O  0.12970181  0.82699216  0.70483979    -0.75800
O190        O  0.13700012  0.78968125  0.66781336    -0.79300
O191        O  0.17462157  0.86566604  0.57805091    -0.80000
C192        C  0.13310238  0.79797823  0.69659679     0.95300
O193        O  0.08902567  0.82841233  0.63383440    -0.77900
O194        O  0.17986584  0.87281238  0.70544535    -0.83100
C195        C  0.15454745  0.93224421  0.64394432     0.97900
C196        C  0.20768294  0.87948632  0.69569963     1.03800
O197        O  0.17049511  0.91720486  0.62316406    -0.78800
C198        C  0.07504654  0.85091894  0.64841300     1.02100
Fe199      Fe  0.37043854  0.81364033  0.87102258     1.65800
Fe200      Fe  0.37475902  0.86944773  0.81115722     1.73200
Fe201      Fe  0.31582181  0.87345858  0.86729151     1.54400
O202        O  0.28996481  0.83185617  0.86858308    -0.82500
O203        O  0.37251941  0.91644408  0.82711237    -0.80800
O204        O  0.32584303  0.79398406  0.87787750    -0.85000
O205        O  0.37020137  0.83422548  0.91574409    -0.79900
O206        O  0.29560107  0.88185817  0.82344271    -0.81600
O207        O  0.41994349  0.86631367  0.83038761    -0.84400
C208        C  0.35156913  0.85377056  0.92918958     0.96400
C209        C  0.29732313  0.80305834  0.87397390     1.03800
O210        O  0.35378866  0.85224001  0.84981240    -1.13400
O211        O  0.37894582  0.82466791  0.79032572    -0.75800
O212        O  0.37240641  0.78851187  0.82885162    -0.79300
O213        O  0.32990997  0.86829246  0.91398561    -0.80000
C214        C  0.37636966  0.79585536  0.79974501     0.95300
O215        O  0.41729279  0.82760177  0.86659938    -0.77900
O216        O  0.33252918  0.87438902  0.78657223    -0.83100
C217        C  0.35772624  0.93097920  0.84922543     0.97900
C218        C  0.30402179  0.88022953  0.79454182     1.03800
O219        O  0.33780447  0.91705208  0.86729040    -0.78800
C220        C  0.43308005  0.84770122  0.85037559     1.02100
Fe221      Fe  0.13092029  0.68733016  0.86790628     1.65800
Fe222      Fe  0.13466874  0.62953622  0.81050122     1.73200
Fe223      Fe  0.19051480  0.63154518  0.87023142     1.54400
O224        O  0.21215711  0.67540620  0.87496442    -0.82500
O225        O  0.13832949  0.58378720  0.82836645    -0.80800
O226        O  0.17310458  0.71123410  0.87522364    -0.85000
O227        O  0.13145817  0.66889640  0.91333017    -0.79900
O228        O  0.21488673  0.62671365  0.82778376    -0.81600
O229        O  0.08809101  0.63043055  0.82642080    -0.84400
C230        C  0.14941356  0.64994595  0.92860663     0.96400
C231        C  0.20228804  0.70389375  0.87665989     1.03800
O232        O  0.15197340  0.64937654  0.84965039    -1.13400
O233        O  0.12970845  0.67273337  0.78747501    -0.75800
O234        O  0.12861022  0.71055155  0.82473466    -0.79300
O235        O  0.17181019  0.63464158  0.91547233    -0.80000
C236        C  0.12844443  0.70182931  0.79579892     0.95300
O237        O  0.08562752  0.66904879  0.86250653    -0.77900
O238        O  0.17868067  0.62649190  0.78915727    -0.83100
C239        C  0.15440340  0.57019138  0.85008642     0.97900
C240        C  0.20738589  0.62573909  0.79850179     1.03800
O241        O  0.17379587  0.58532417  0.86781115    -0.78800
C242        C  0.07238278  0.64760399  0.84565621     1.02100
Fe243      Fe  0.37587303  0.68747944  0.62889980     1.65800
Fe244      Fe  0.37478173  0.62673443  0.68369757     1.73200
Fe245      Fe  0.31659779  0.63116157  0.62606998     1.54400
O246        O  0.29496111  0.67520367  0.62266846    -0.82500
O247        O  0.37133238  0.58171436  0.66332467    -0.80800
O248        O  0.33348533  0.71169615  0.62559941    -0.85000
O249        O  0.37238099  0.67229295  0.58227515    -0.79900
O250        O  0.29359013  0.62573636  0.66943037    -0.81600
O251        O  0.42103264  0.62994279  0.66673537    -0.84400
C252        C  0.35491367  0.65298245  0.56678554     0.96400
C253        C  0.30438588  0.70400135  0.62343232     1.03800
O254        O  0.35583679  0.64834285  0.64610003    -1.13400
O255        O  0.37961396  0.66888701  0.70911847    -0.75800
O256        O  0.38129934  0.70808171  0.67322808    -0.79300
O257        O  0.33429623  0.63513807  0.58009607    -0.80000
C258        C  0.38170711  0.69828325  0.70186515     0.95300
O259        O  0.42098793  0.66866378  0.63041577    -0.77900
O260        O  0.33154430  0.62142620  0.70619898    -0.83100
C261        C  0.35323779  0.56889631  0.64256244     0.97900
C262        C  0.30245270  0.62233797  0.69820559     1.03800
O263        O  0.33278976  0.58478739  0.62703949    -0.78800
C264        C  0.43538088  0.64753536  0.64662420     1.02100
Fe265      Fe  0.13094820  0.13179487  0.68294080     1.65800
Fe266      Fe  0.13076098  0.18782106  0.62393201     1.73200
Fe267      Fe  0.18794994  0.13083507  0.62604738     1.54400
O268        O  0.20837641  0.12088412  0.66989871    -0.82500
O269        O  0.12862197  0.16619741  0.57997461    -0.80800
O270        O  0.17359730  0.13395457  0.70736546    -0.85000
O271        O  0.13918842  0.08479405  0.66924968    -0.79900
O272        O  0.21213328  0.17369194  0.62675574    -0.81600
O273        O  0.08426332  0.17235487  0.63162196    -0.84400
C274        C  0.15140656  0.07097994  0.64520597     0.96400
C275        C  0.20160864  0.12652193  0.69883205     1.03800
O276        O  0.14975705  0.15011246  0.64425092    -1.13400
O277        O  0.13129975  0.21292286  0.66598312    -0.75800
O278        O  0.12056188  0.17592874  0.70254275    -0.79300
O279        O  0.16709862  0.08624068  0.62417409    -0.80000
C280        C  0.12473301  0.20485738  0.69443402     0.95300
O281        O  0.08676702  0.12859168  0.66176919    -0.77900
O282        O  0.17475311  0.20870980  0.61366562    -0.83100
C283        C  0.14936092  0.14986861  0.56535972     0.97900
C284        C  0.20372208  0.20175687  0.61901765     1.03800
O285        O  0.17332711  0.13828344  0.57958070    -0.78800
C286        C  0.07117400  0.14830993  0.64491240     1.02100
Fe287      Fe  0.37589450  0.37194661  0.68150431     1.65800
Fe288      Fe  0.37640919  0.31353123  0.62500247     1.73200
Fe289      Fe  0.31856828  0.37008928  0.62387874     1.54400
O290        O  0.29679229  0.37956002  0.66737528    -0.82500
O291        O  0.37940969  0.33381114  0.58063209    -0.80800
O292        O  0.33325117  0.37259532  0.70518100    -0.85000
O293        O  0.36936715  0.41807998  0.66447783    -0.79900
O294        O  0.29517056  0.32688935  0.62457624    -0.81600
O295        O  0.42280793  0.32848378  0.63357557    -0.84400
C296        C  0.35552209  0.43096448  0.64074556     0.96400
C297        C  0.30475762  0.37740784  0.69656800     1.03800
O298        O  0.35706778  0.35202989  0.64338361    -1.13400
O299        O  0.37463794  0.29026706  0.66786899    -0.75800
O300        O  0.38449234  0.32833687  0.70372269    -0.79300
O301        O  0.33790997  0.41527914  0.62168870    -0.80000
C302        C  0.38034952  0.29917580  0.69623818     0.95300
O303        O  0.42066044  0.37314584  0.66220403    -0.77900
O304        O  0.33307902  0.29185013  0.61397004    -0.83100
C305        C  0.35901863  0.34950470  0.56485888     0.97900
C306        C  0.30395780  0.29869880  0.61806890     1.03800
O307        O  0.33483032  0.36243407  0.57768916    -0.78800
C308        C  0.43612915  0.35223307  0.64699717     1.02100
Fe309      Fe  0.31795788  0.12922963  0.86855414     1.65800
Fe310      Fe  0.37318493  0.12842797  0.80841081     1.73200
Fe311      Fe  0.37531195  0.18713190  0.86560964     1.54400
O312        O  0.33231317  0.21038143  0.86991241    -0.82500
O313        O  0.41996263  0.13324060  0.82330590    -0.80800
O314        O  0.29537217  0.17231880  0.87394709    -0.85000
O315        O  0.33720638  0.13174944  0.91390110    -0.79900
O316        O  0.37978047  0.20902918  0.82171521    -0.81600
O317        O  0.37283339  0.08271616  0.82736438    -0.84400
C318        C  0.35733500  0.14986644  0.92744734     0.96400
C319        C  0.30360615  0.20144680  0.87301940     1.03800
O320        O  0.35564387  0.14816171  0.84763808    -1.13400
O321        O  0.32892314  0.12199934  0.78759626    -0.75800
O322        O  0.29322101  0.12500730  0.82630194    -0.79300
O323        O  0.37298594  0.17092826  0.91217310    -0.80000
C324        C  0.30021325  0.12264647  0.79703579     0.95300
O325        O  0.33567911  0.08380559  0.86503756    -0.77900
O326        O  0.37503934  0.17135210  0.78455669    -0.83100
C327        C  0.43474908  0.14928616  0.84434920     0.97900
C328        C  0.37778565  0.20034290  0.79277972     1.03800
O329        O  0.42061475  0.16870727  0.86277980    -0.78800
C330        C  0.35595847  0.06890667  0.84847360     1.02100
Fe331      Fe  0.13565223  0.37394800  0.80916635     1.65800
Fe332      Fe  0.13367954  0.31373011  0.86475813     1.73200
Fe333      Fe  0.19274686  0.37005379  0.86775827     1.54400
O334        O  0.21588662  0.37650455  0.82477560    -0.82500
O335        O  0.13562027  0.32967738  0.91139948    -0.80800
O336        O  0.17926035  0.37699014  0.78642832    -0.85000
O337        O  0.14086001  0.41920388  0.82789159    -0.79900
O338        O  0.21461323  0.32621251  0.87005740    -0.81600
O339        O  0.08849061  0.33243870  0.86151177    -0.84400
C340        C  0.15741131  0.43212303  0.84976958     0.96400
C341        C  0.20808498  0.37741494  0.79554382     1.03800
O342        O  0.15389653  0.35271515  0.84733954    -1.13400
O343        O  0.12974618  0.29257173  0.82063756    -0.75800
O344        O  0.12889384  0.33179998  0.78482403    -0.79300
O345        O  0.17611933  0.41627228  0.86741341    -0.80000
C346        C  0.12835650  0.30243180  0.79205632     0.95300
O347        O  0.08943580  0.37267399  0.82682143    -0.77900
O348        O  0.17614294  0.28961084  0.86944835    -0.83100
C349        C  0.15346594  0.34850759  0.92704361     0.97900
C350        C  0.20530529  0.29738475  0.87026168     1.03800
O351        O  0.17506539  0.36509986  0.91363604    -0.78800
C352        C  0.07456275  0.35451387  0.84610222     1.02100
Fe353      Fe  0.81629312  0.87598150  0.37122323     1.65800
Fe354      Fe  0.87086756  0.81538452  0.36881867     1.73200
Fe355      Fe  0.87202029  0.87344045  0.31141755     1.54400
O356        O  0.82819070  0.87742956  0.28915360    -0.82500
O357        O  0.91702927  0.83085758  0.36383623    -0.80800
O358        O  0.79283745  0.88327112  0.32814530    -0.85000
O359        O  0.83685267  0.92109133  0.36934746    -0.79900
O360        O  0.87694004  0.83016910  0.28902651    -0.81600
O361        O  0.87130092  0.83302429  0.41453497    -0.84400
C362        C  0.85588444  0.93469162  0.34997665     0.96400
C363        C  0.79979822  0.88171481  0.29867303     1.03800
O364        O  0.85312731  0.85501470  0.35060104    -1.13400
O365        O  0.82701614  0.79472551  0.37576182    -0.75800
O366        O  0.79112059  0.83358334  0.37537341    -0.79300
O367        O  0.86960119  0.91947712  0.32789369    -0.80000
C368        C  0.79851006  0.80422987  0.37741203     0.95300
O369        O  0.83420416  0.87074893  0.41720818    -0.77900
O370        O  0.87232992  0.79203532  0.32559061    -0.83100
C371        C  0.93200029  0.85170135  0.34775680     0.97900
C372        C  0.87534016  0.80102585  0.29685639     1.03800
O373        O  0.91811316  0.87093445  0.32885273    -0.78800
C374        C  0.85476723  0.85273737  0.43027138     1.02100
Fe375      Fe  0.81388032  0.63479857  0.12510547     1.65800
Fe376      Fe  0.87247554  0.69173853  0.12646766     1.73200
Fe377      Fe  0.87195655  0.63187626  0.18229288     1.54400
O378        O  0.82911977  0.62933011  0.20624122    -0.82500
O379        O  0.91822881  0.67456605  0.13010206    -0.80800
O380        O  0.79189228  0.62685369  0.16858737    -0.85000
O381        O  0.83177903  0.58906572  0.12400623    -0.79900
O382        O  0.87961400  0.67454032  0.20597038    -0.81600
O383        O  0.87116418  0.67461894  0.08066341    -0.84400
C384        C  0.85017661  0.57321408  0.14199614     0.96400
C385        C  0.80022798  0.62680974  0.19770375     1.03800
O386        O  0.85287446  0.65269115  0.14452492    -1.13400
O387        O  0.82954477  0.71493880  0.12088232    -0.75800
O388        O  0.79130815  0.67824830  0.12454272    -0.79300
O389        O  0.86614597  0.58615466  0.16432259    -0.80000
C390        C  0.80042115  0.70704101  0.12204555     0.95300
O391        O  0.83011634  0.64103884  0.07886773    -0.77900
O392        O  0.87572259  0.71341404  0.17009240    -0.83100
C393        C  0.93192180  0.65169637  0.14433462     0.97900
C394        C  0.87891171  0.70391513  0.19864273     1.03800
O395        O  0.91710793  0.63268114  0.16283570    -0.78800
C396        C  0.85233869  0.65664712  0.06532308     1.02100
Fe397      Fe  0.68921248  0.87657902  0.12754244     1.65800
Fe398      Fe  0.63119843  0.81933824  0.12844079     1.73200
Fe399      Fe  0.62997698  0.87964883  0.18347327     1.54400
O400        O  0.67343341  0.88824674  0.20635552    -0.82500
O401        O  0.58588029  0.83773285  0.12719934    -0.80800
O402        O  0.71175558  0.87953681  0.17092218    -0.85000
O403        O  0.67327312  0.92285229  0.13066677    -0.79900
O404        O  0.62735474  0.83784730  0.20914148    -0.81600
O405        O  0.63700077  0.83418668  0.08171156    -0.84400
C406        C  0.65009464  0.93755986  0.14302848     0.96400
C407        C  0.70275241  0.88546629  0.19912234     1.03800
O408        O  0.65001848  0.85856144  0.14642239    -1.13400
O409        O  0.67398358  0.79570015  0.12800743    -0.75800
O410        O  0.71124472  0.83299256  0.12202028    -0.79300
O411        O  0.63046686  0.92381875  0.16161637    -0.80000
C412        C  0.70279442  0.80403049  0.12471515     0.95300
O413        O  0.67098709  0.87509359  0.08203039    -0.77900
O414        O  0.62345694  0.79944623  0.17280661    -0.83100
C415        C  0.57027102  0.85647860  0.14493494     0.97900
C416        C  0.62394185  0.80873496  0.20167390     1.03800
O417        O  0.58366873  0.87315478  0.16657229    -0.78800
C418        C  0.65222408  0.85623848  0.06748635     1.02100
Fe419      Fe  0.68697193  0.63580870  0.36751372     1.65800
Fe420      Fe  0.62765993  0.69148950  0.36871235     1.73200
Fe421      Fe  0.63008111  0.63529153  0.30918086     1.54400
O422        O  0.67341595  0.63441885  0.28577325    -0.82500
O423        O  0.58197703  0.67423572  0.36230521    -0.80800
O424        O  0.70931610  0.62856705  0.32421309    -0.85000
O425        O  0.66836597  0.59017970  0.36731587    -0.79900
O426        O  0.62262358  0.67931022  0.28834436    -0.81600
O427        O  0.62826165  0.67159538  0.41376219    -0.84400
C428        C  0.65039278  0.57499196  0.34812164     0.96400
C429        C  0.70192293  0.63069467  0.29496458     1.03800
O430        O  0.64803750  0.65406237  0.34857976    -1.13400
O431        O  0.67040470  0.71453504  0.37719636    -0.75800
O432        O  0.70933570  0.67957311  0.36912238    -0.79300
O433        O  0.63585612  0.58865728  0.32523088    -0.80000
C434        C  0.69966662  0.70774604  0.37448116     0.95300
O435        O  0.67147697  0.64092791  0.41404355    -0.77900
O436        O  0.62503525  0.71620209  0.32631482    -0.83100
C437        C  0.56863323  0.65299950  0.34524135     0.97900
C438        C  0.62212684  0.70824261  0.29722506     1.03800
O439        O  0.58407864  0.63474513  0.32669555    -0.78800
C440        C  0.64865911  0.65462708  0.42826803     1.02100
Fe441      Fe  0.63099772  0.13443853  0.18152025     1.65800
Fe442      Fe  0.63051577  0.19100758  0.12320338     1.73200
Fe443      Fe  0.68886406  0.13477657  0.12457569     1.54400
O444        O  0.71000684  0.12501418  0.16821077    -0.82500
O445        O  0.62944699  0.16981272  0.07911468    -0.80800
O446        O  0.67357595  0.13414352  0.20542028    -0.85000
O447        O  0.63750851  0.08841017  0.16526065    -0.79900
O448        O  0.71196905  0.17802475  0.12575412    -0.81600
O449        O  0.58425445  0.17517458  0.13006513    -0.84400
C450        C  0.65053022  0.07495848  0.14149195     0.96400
C451        C  0.70200980  0.12879461  0.19715893     1.03800
O452        O  0.65002014  0.15332648  0.14307427    -1.13400
O453        O  0.63007320  0.21570486  0.16558011    -0.75800
O454        O  0.62266552  0.17827002  0.20270576    -0.79300
O455        O  0.66865013  0.08994262  0.12228832    -0.80000
C456        C  0.62533684  0.20731867  0.19432299     0.95300
O457        O  0.58600121  0.13293186  0.16212744    -0.77900
O458        O  0.67393060  0.21272223  0.11370603    -0.83100
C459        C  0.65062771  0.15456277  0.06406563     0.97900
C460        C  0.70294075  0.20608266  0.11881999     1.03800
O461        O  0.67455627  0.14226871  0.07787457    -0.78800
C462        C  0.57075728  0.15206039  0.14432696     1.02100
Fe463      Fe  0.69052372  0.37456156  0.36759593     1.65800
Fe464      Fe  0.63425921  0.37692475  0.30867469     1.73200
Fe465      Fe  0.63192006  0.31736864  0.36494298     1.54400
O466        O  0.67437942  0.29328770  0.36898601    -0.82500
O467        O  0.58790788  0.37298697  0.32481904    -0.80800
O468        O  0.71177677  0.33074958  0.37409740    -0.85000
O469        O  0.67044584  0.37342037  0.41265112    -0.79900
O470        O  0.62678950  0.29574866  0.32092137    -0.81600
O471        O  0.63557722  0.42240949  0.32800759    -0.84400
C472        C  0.65001829  0.35547646  0.42608597     0.96400
C473        C  0.70309891  0.30174889  0.37276963     1.03800
O474        O  0.65216768  0.35633813  0.34714957    -1.13400
O475        O  0.67816608  0.38331488  0.28732034    -0.75800
O476        O  0.71509655  0.37705832  0.32496033    -0.79300
O477        O  0.63494235  0.33383671  0.41109298    -0.80000
C478        C  0.70700268  0.38130391  0.29606627     0.95300
O479        O  0.67497402  0.42113903  0.36326994    -0.77900
O480        O  0.63149975  0.33410955  0.28434825    -0.83100
C481        C  0.57302618  0.35692189  0.34585918     0.97900
C482        C  0.62864368  0.30493296  0.29209081     1.03800
O483        O  0.58669551  0.33617602  0.36306289    -0.78800
C484        C  0.65397560  0.43629775  0.34773031     1.02100
Fe485      Fe  0.81479767  0.13219809  0.36496305     1.65800
Fe486      Fe  0.87283760  0.13226235  0.30773063     1.73200
Fe487      Fe  0.87168791  0.19065686  0.36464892     1.54400
O488        O  0.82880764  0.21346371  0.36600143    -0.82500
O489        O  0.91923678  0.13978240  0.32357056    -0.80800
O490        O  0.79198892  0.17556349  0.37150027    -0.85000
O491        O  0.83349488  0.13299261  0.41009337    -0.79900
O492        O  0.87875048  0.21240150  0.32073271    -0.81600
O493        O  0.87424838  0.08756005  0.32853997    -0.84400
C494        C  0.85203397  0.15181538  0.42485979     0.96400
C495        C  0.80015614  0.20471846  0.36924523     1.03800
O496        O  0.85317449  0.15163045  0.34585179    -1.13400
O497        O  0.82959569  0.12250237  0.28560376    -0.75800
O498        O  0.79184765  0.12961348  0.32207156    -0.79300
O499        O  0.86649080  0.17457205  0.41100068    -0.80000
C500        C  0.80054464  0.12476385  0.29357266     0.95300
O501        O  0.83199331  0.08621114  0.36055690    -0.77900
O502        O  0.87261098  0.17507115  0.28333877    -0.83100
C503        C  0.93246849  0.15513574  0.34620417     0.97900
C504        C  0.87588137  0.20402216  0.29171474     1.03800
O505        O  0.91684364  0.17244758  0.36526015    -0.78800
C506        C  0.85547503  0.07269650  0.34722440     1.02100
Fe507      Fe  0.87401069  0.31860728  0.12309222     1.65800
Fe508      Fe  0.81591107  0.37483397  0.12451087     1.73200
Fe509      Fe  0.87426083  0.37559902  0.18090694     1.54400
O510        O  0.88364463  0.33172665  0.20205219    -0.82500
O511        O  0.83565633  0.41974716  0.12193811    -0.80800
O512        O  0.87323461  0.29423446  0.16583458    -0.85000
O513        O  0.92058567  0.33398895  0.13065947    -0.79900
O514        O  0.83214129  0.37466113  0.20542054    -0.81600
O515        O  0.83027174  0.36707596  0.07751465    -0.84400
C516        C  0.93398615  0.35778923  0.14397224     0.96400
C517        C  0.87908972  0.30270846  0.19435036     1.03800
O518        O  0.85492177  0.35655367  0.14268506    -1.13400
O519        O  0.79276789  0.33173827  0.12608919    -0.75800
O520        O  0.83046695  0.29723846  0.11302029    -0.79300
O521        O  0.91867127  0.37780307  0.16061428    -0.80000
C522        C  0.80153741  0.30381205  0.11859182     0.95300
O523        O  0.87550394  0.33962469  0.07857100    -0.77900
O524        O  0.79520484  0.38439049  0.16870472    -0.83100
C525        C  0.85295228  0.43521880  0.14146480     0.97900
C526        C  0.80356484  0.37983100  0.19753865     1.03800
O527        O  0.86663725  0.42201260  0.16512578    -0.78800
C528        C  0.85424484  0.35504291  0.06347493     1.02100
Fe529      Fe  0.13114945  0.19156546  0.36768867     1.65800
Fe530      Fe  0.13013575  0.13391757  0.30956193     1.73200
Fe531      Fe  0.18706528  0.13234284  0.36804609     1.54400
O532        O  0.21075714  0.17539762  0.37506325    -0.82500
O533        O  0.13011732  0.08843861  0.32768073    -0.80800
O534        O  0.17489146  0.21411084  0.37214578    -0.85000
O535        O  0.13367551  0.17408865  0.41367764    -0.79900
O536        O  0.21066428  0.12916833  0.32523509    -0.81600
O537        O  0.08412680  0.13846777  0.32598125    -0.84400
C538        C  0.14829095  0.15159807  0.42760915     0.96400
C539        C  0.20343269  0.20482736  0.37532600     1.03800
O540        O  0.14938028  0.15257124  0.34848538    -1.13400
O541        O  0.12794843  0.17705750  0.28639762    -0.75800
O542        O  0.12664929  0.21426299  0.32430853    -0.79300
O543        O  0.16770316  0.13357302  0.41307080    -0.80000
C544        C  0.12631342  0.20591283  0.29520496     0.95300
O545        O  0.08509306  0.17412819  0.36529855    -0.77900
O546        O  0.17356494  0.12706668  0.28759191    -0.83100
C547        C  0.14762230  0.07294813  0.34672999     0.97900
C548        C  0.20253975  0.12673253  0.29623262     1.03800
O549        O  0.16928411  0.08625954  0.36328432    -0.78800
C550        C  0.07027250  0.15446569  0.34752115     1.02100
Fe551      Fe  0.18984918  0.37519353  0.12633728     1.65800
Fe552      Fe  0.13098950  0.31857474  0.12731054     1.73200
Fe553      Fe  0.13277761  0.37731091  0.18460812     1.54400
O554        O  0.17577524  0.38103761  0.20799989    -0.82500
O555        O  0.08512289  0.33624955  0.13147181    -0.80800
O556        O  0.21233760  0.38270450  0.16974983    -0.85000
O557        O  0.17134333  0.42073407  0.12608349    -0.79900
O558        O  0.12709326  0.33426426  0.20782590    -0.81600
O559        O  0.13240236  0.33593208  0.08113096    -0.84400
C560        C  0.15261311  0.43623370  0.14401670     0.96400
C561        C  0.20447749  0.38284792  0.19900105     1.03800
O562        O  0.15108651  0.35711672  0.14598853    -1.13400
O563        O  0.17399840  0.29528612  0.12151470    -0.75800
O564        O  0.21259026  0.33171785  0.12490367    -0.79300
O565        O  0.13705571  0.42302816  0.16648815    -0.80000
C566        C  0.20324029  0.30296568  0.12261448     0.95300
O567        O  0.17360173  0.36934755  0.07990292    -0.77900
O568        O  0.12789695  0.29611941  0.17081672    -0.83100
C569        C  0.07173045  0.35793345  0.14785618     0.97900
C570        C  0.12700972  0.30511225  0.19968020     1.03800
O571        O  0.08711345  0.37576354  0.16685897    -0.78800
C572        C  0.15153120  0.35394304  0.06594816     1.02100
Fe573      Fe  0.37151510  0.13481195  0.18503671     1.65800
Fe574      Fe  0.31626946  0.13387650  0.12495548     1.73200
Fe575      Fe  0.37375637  0.19218066  0.12674884     1.54400
O576        O  0.37641449  0.21577200  0.16962045    -0.82500
O577        O  0.33401395  0.13863781  0.07899484    -0.80800
O578        O  0.37641621  0.17836730  0.20739855    -0.85000
O579        O  0.41754213  0.13626706  0.16832373    -0.79900
O580        O  0.33027576  0.21450738  0.12010582    -0.81600
O581        O  0.33565607  0.08876578  0.12646544    -0.84400
C582        C  0.43298742  0.15346442  0.14877952     0.96400
C583        C  0.37701579  0.20734615  0.19863645     1.03800
O584        O  0.35393171  0.15356583  0.14550148    -1.13400
O585        O  0.29249612  0.12664011  0.16765160    -0.75800
O586        O  0.32781547  0.13143132  0.20666897    -0.79300
O587        O  0.41964471  0.17482181  0.13183312    -0.80000
C588        C  0.29943050  0.12774796  0.19708034     0.95300
O589        O  0.36825796  0.08864612  0.16827661    -0.77900
O590        O  0.29271563  0.17684420  0.12185468    -0.83100
C591        C  0.35582482  0.15497280  0.06567529     0.97900
C592        C  0.30123869  0.20590592  0.11986456     1.03800
O593        O  0.37344261  0.17406044  0.08114952    -0.78800
C594        C  0.35429409  0.07438083  0.14552897     1.02100
Fe595      Fe  0.37363261  0.37823131  0.31082106     1.65800
Fe596      Fe  0.31697918  0.37389344  0.36951219     1.73200
Fe597      Fe  0.37629585  0.31826252  0.36640705     1.54400
O598        O  0.37725207  0.29666621  0.32271493    -0.82500
O599        O  0.33488982  0.36780278  0.41513763    -0.80800
O600        O  0.38068259  0.33567114  0.28658780    -0.85000
O601        O  0.41941751  0.37802886  0.32832050    -0.79900
O602        O  0.33352256  0.29429149  0.37447827    -0.81600
O603        O  0.33464195  0.41987940  0.37034933    -0.84400
C604        C  0.43523220  0.35888797  0.34551231     0.96400
C605        C  0.37977853  0.30629468  0.29413756     1.03800
O606        O  0.35569399  0.35688042  0.34895837    -1.13400
O607        O  0.29348584  0.38212599  0.32671677    -0.75800
O608        O  0.33016538  0.38079426  0.28844956    -0.79300
O609        O  0.42220249  0.33586257  0.36046104    -0.80000
C610        C  0.30146205  0.38298727  0.29749716     0.95300
O611        O  0.36836927  0.42359922  0.32961476    -0.77900
O612        O  0.29461539  0.32982877  0.37080989    -0.83100
C613        C  0.35832346  0.35347400  0.42777882     0.97900
C614        C  0.30412184  0.30122212  0.37386339     1.03800
O615        O  0.37710238  0.33588274  0.41201531    -0.78800
C616        C  0.35280890  0.43612601  0.35237823     1.02100
Fe617      Fe  0.13001552  0.69159536  0.12497312     1.65800
Fe618      Fe  0.18695789  0.63385307  0.12643824     1.73200
Fe619      Fe  0.12907052  0.63459724  0.18307505     1.54400
O620        O  0.12061682  0.67884287  0.20403787    -0.82500
O621        O  0.16638153  0.58941172  0.12454905    -0.80800
O622        O  0.13018061  0.71588563  0.16706332    -0.85000
O623        O  0.08315473  0.67650649  0.13191840    -0.79900
O624        O  0.17122645  0.63444904  0.20739212    -0.81600
O625        O  0.17241675  0.64121297  0.07968191    -0.84400
C626        C  0.06956726  0.65322161  0.14606470     0.96400
C627        C  0.12509441  0.70774426  0.19567059     1.03800
O628        O  0.14855007  0.65324840  0.14471773    -1.13400
O629        O  0.21094900  0.67627952  0.12709384    -0.75800
O630        O  0.17419353  0.71275226  0.11616498    -0.79300
O631        O  0.08483873  0.63323570  0.16270784    -0.80000
C632        C  0.20295008  0.70479684  0.12141235     0.95300
O633        O  0.12864358  0.67100169  0.08081490    -0.77900
O634        O  0.20780666  0.62461687  0.17058416    -0.83100
C635        C  0.14901530  0.57425436  0.14421728     0.97900
C636        C  0.19970487  0.62898923  0.19950747     1.03800
O637        O  0.13559841  0.58784136  0.16775527    -0.78800
C638        C  0.14913750  0.65477687  0.06587694     1.02100
Fe639      Fe  0.31328409  0.63364662  0.36925370     1.65800
Fe640      Fe  0.37014123  0.63485462  0.31070025     1.73200
Fe641      Fe  0.37052732  0.69204325  0.36920613     1.54400
O642        O  0.32690195  0.71374581  0.37672597    -0.82500
O643        O  0.41593193  0.63696401  0.32792748    -0.80800
O644        O  0.28965095  0.67632250  0.37233331    -0.85000
O645        O  0.33047609  0.63791117  0.41556064    -0.79900
O646        O  0.37235988  0.71589356  0.32659427    -0.81600
O647        O  0.36700449  0.58833450  0.32783321    -0.84400
C648        C  0.35258532  0.65365756  0.42912090     0.96400
C649        C  0.29785499  0.70517767  0.37602960     1.03800
O650        O  0.35144898  0.65339490  0.34982467    -1.13400
O651        O  0.32706383  0.63094821  0.28772828    -0.75800
O652        O  0.29044534  0.62717682  0.32580314    -0.79300
O653        O  0.37046448  0.67306223  0.41428692    -0.80000
C654        C  0.29845397  0.62766384  0.29655494     0.95300
O655        O  0.33239250  0.58864624  0.36802606    -0.77900
O656        O  0.37514436  0.67896931  0.28874667    -0.83100
C657        C  0.43081620  0.65499480  0.34718913     0.97900
C658        C  0.37468591  0.70803219  0.29758079     1.03800
O659        O  0.41696347  0.67614262  0.36383778    -0.78800
C660        C  0.35200460  0.57421691  0.35016302     1.02100
Fe661      Fe  0.12909244  0.87582989  0.31052298     1.65800
Fe662      Fe  0.12973000  0.81654095  0.36596833     1.73200
Fe663      Fe  0.18542509  0.87541797  0.36888627     1.54400
O664        O  0.21016542  0.87491762  0.32625607    -0.82500
O665        O  0.13647584  0.83093513  0.41259995    -0.80800
O666        O  0.17288992  0.88645317  0.29048261    -0.85000
O667        O  0.12634511  0.91981673  0.33187269    -0.79900
O668        O  0.20670243  0.83216728  0.37954511    -0.81600
O669        O  0.08461211  0.83540364  0.36778517    -0.84400
C670        C  0.14640667  0.93514477  0.34855692     0.96400
C671        C  0.20175148  0.88146480  0.29781938     1.03800
O672        O  0.14789310  0.85603910  0.34854692    -1.13400
O673        O  0.12087313  0.79644931  0.32185049    -0.75800
O674        O  0.13016655  0.83382558  0.28518929    -0.79300
O675        O  0.17038262  0.92189055  0.36130160    -0.80000
C676        C  0.12431323  0.80514743  0.29305389     0.95300
O677        O  0.08281944  0.86744230  0.32524289    -0.77900
O678        O  0.17299583  0.79383901  0.36521211    -0.83100
C679        C  0.14759584  0.85498317  0.42729671     0.97900
C680        C  0.20051453  0.80310950  0.37363149     1.03800
O681        O  0.16354975  0.87660442  0.41305234    -0.78800
C682        C  0.06945111  0.85296902  0.34830743     1.02100
Fe683      Fe  0.37166394  0.81958660  0.12619260     1.65800
Fe684      Fe  0.31325972  0.87589760  0.12788921     1.73200
Fe685      Fe  0.37211404  0.87719352  0.18375241     1.54400
O686        O  0.37216165  0.83429463  0.20769058    -0.82500
O687        O  0.32884371  0.92224472  0.13394285    -0.80800
O688        O  0.38063437  0.79822890  0.16975492    -0.85000
O689        O  0.41668634  0.83960026  0.12479652    -0.79900
O690        O  0.32910108  0.88643970  0.20616837    -0.81600
O691        O  0.33155314  0.87724981  0.08239376    -0.84400
C692        C  0.43191280  0.85697581  0.14447099     0.96400
C693        C  0.37691511  0.80570338  0.19885221     1.03800
O694        O  0.35248273  0.85763571  0.14575159    -1.13400
O695        O  0.29187296  0.83229192  0.11963772    -0.75800
O696        O  0.32895086  0.79505528  0.12581256    -0.79300
O697        O  0.41834541  0.87048604  0.16788833    -0.80000
C698        C  0.30022424  0.80331845  0.12150661     0.95300
O699        O  0.36447942  0.83572670  0.08004771    -0.77900
O700        O  0.29076935  0.87560938  0.17141715    -0.83100
C701        C  0.35274869  0.93639051  0.14591231     0.97900
C702        C  0.30000251  0.88170312  0.19958810     1.03800
O703        O  0.37311779  0.92181572  0.16293454    -0.78800
C704        C  0.34914745  0.85828467  0.06683507     1.02100
C705        C  0.25880323  0.88076325  0.28110848    -0.10000
C706        C  0.22653332  0.88295716  0.27230803     0.06200
C707        C  0.21903474  0.88513121  0.23932212    -0.03800
C708        C  0.24340780  0.88545301  0.21661048    -0.08200
C709        C  0.27562222  0.88308177  0.22539958     0.05300
C710        C  0.28315241  0.88053594  0.25828354    -0.03200
Br711      Br  0.32564719  0.87469994  0.27434805    -0.02900
H712        H  0.26532978  0.87869220  0.30603437     0.09200
H713        H  0.23688373  0.88715159  0.19163486     0.07300
Br714      Br  0.17642975  0.88629163  0.22236565    -0.03400
C715        C  0.37397286  0.72470078  0.24062743    -0.10000
C716        C  0.37640818  0.73358079  0.27289372     0.06200
C717        C  0.37940351  0.76653570  0.28035993    -0.03800
C718        C  0.38039963  0.78914501  0.25580196    -0.08200
C719        C  0.37768942  0.78021309  0.22356286     0.05300
C720        C  0.37409861  0.74737905  0.21617129    -0.03200
Br721      Br  0.36691365  0.73104307  0.17384129    -0.02900
H722        H  0.37100416  0.69979038  0.23417459     0.09200
H723        H  0.38287009  0.81412658  0.26217655     0.07300
Br724      Br  0.38163365  0.78349608  0.32305368    -0.03400
C725        C  0.21741582  0.74697494  0.38215653    -0.10000
C726        C  0.22608767  0.77894168  0.37666068     0.06200
C727        C  0.25873261  0.78655480  0.37308251    -0.03800
C728        C  0.28147712  0.76227315  0.37404254    -0.08200
C729        C  0.27274097  0.73007529  0.37840252     0.05300
C730        C  0.24011632  0.72268172  0.38319482    -0.03200
Br731      Br  0.22407449  0.68040347  0.39174367    -0.02900
H732        H  0.19258027  0.74067817  0.38558019     0.09200
H733        H  0.30621420  0.76869127  0.37025667     0.07300
Br734      Br  0.27431079  0.82895842  0.36443791    -0.03400
C735        C  0.27954584  0.75054583  0.13847357    -0.10000
C736        C  0.27538414  0.77816503  0.11999435     0.06200
C737        C  0.24720262  0.78143641  0.10182702    -0.03800
C738        C  0.22395278  0.75736719  0.10264250    -0.08200
C739        C  0.22820061  0.72964944  0.12110985     0.05300
C740        C  0.25644565  0.72651248  0.13934629    -0.03200
Br741      Br  0.26471778  0.69139516  0.16786907    -0.02900
H742        H  0.30055137  0.74799899  0.15314481     0.09200
H743        H  0.20262487  0.76017952  0.08839579     0.07300
Br744      Br  0.23957166  0.81716710  0.07408256    -0.03400
C745        C  0.10336661  0.73044493  0.24590007    -0.10000
C746        C  0.12455840  0.73307435  0.22013307     0.06200
C747        C  0.14502572  0.75993336  0.21828251    -0.03800
C748        C  0.14377113  0.78344699  0.24182919    -0.08200
C749        C  0.12281644  0.78069362  0.26775271     0.05300
C750        C  0.10222848  0.75399305  0.26954947    -0.03200
Br751      Br  0.07087269  0.74910824  0.30260042    -0.02900
H752        H  0.08730532  0.71018960  0.24743544     0.09200
H753        H  0.16009413  0.80351722  0.24041212     0.07300
Br754      Br  0.17714985  0.76499739  0.18590793    -0.03400
C755        C  0.24387396  0.64051741  0.27837417    -0.10000
C756        C  0.27317310  0.62597149  0.27186564     0.06200
C757        C  0.27802373  0.61217247  0.24144787    -0.03800
C758        C  0.25367135  0.61294530  0.21858905    -0.08200
C759        C  0.22440416  0.62785741  0.22496095     0.05300
C760        C  0.21988983  0.64218659  0.25530514    -0.03200
Br761      Br  0.18315696  0.66711559  0.26661887    -0.02900
H762        H  0.24005206  0.65202169  0.30123583     0.09200
H763        H  0.25781175  0.60191705  0.19556596     0.07300
Br764      Br  0.31688949  0.59122620  0.22961866    -0.03400
C765        C  0.38071399  0.48808590  0.34316167    -0.10000
C766        C  0.35498520  0.47133716  0.35687743     0.06200
C767        C  0.33055490  0.48910797  0.37182616    -0.03800
C768        C  0.33117673  0.52244331  0.37053767    -0.08200
C769        C  0.35565526  0.53915029  0.35472758     0.05300
C770        C  0.38141738  0.52154890  0.34218786    -0.03200
Br771      Br  0.41859643  0.54133985  0.32402144    -0.02900
H772        H  0.40024125  0.47505757  0.33245353     0.09200
H773        H  0.31134080  0.53531768  0.38085398     0.07300
Br774      Br  0.29394367  0.47031749  0.39225378    -0.03400
C775        C  0.33680890  0.02274666  0.12206563    -0.10000
C776        C  0.35815130  0.03924314  0.14205149     0.06200
C777        C  0.38054944  0.02129745  0.15983801    -0.03800
C778        C  0.37929189  0.98793479  0.15924674    -0.08200
C779        C  0.35616817  0.97147597  0.14130138     0.05300
C780        C  0.33559843  0.98942998  0.12137837    -0.03200
Br781      Br  0.30464363  0.97105944  0.09276449    -0.02900
H782        H  0.31987648  0.03580066  0.10755095     0.09200
H783        H  0.39598410  0.97484199  0.17400998     0.07300
Br784      Br  0.41343505  0.03991291  0.18593530    -0.03400
C785        C  0.36020011  0.25499325  0.27324542    -0.10000
C786        C  0.37992364  0.28176305  0.26892709     0.06200
C787        C  0.39856272  0.28411671  0.24102055    -0.03800
C788        C  0.39743609  0.25952007  0.21838107    -0.08200
C789        C  0.37805043  0.23247246  0.22316573     0.05300
C790        C  0.35902095  0.23053951  0.25078752    -0.03200
Br791      Br  0.32889179  0.19667887  0.25819898    -0.02900
H792        H  0.34487457  0.25349638  0.29388264     0.09200
H793        H  0.41203113  0.26134108  0.19713527     0.07300
Br794      Br  0.42692719  0.31931868  0.23315926    -0.03400
C795        C  0.17143206  0.52318991  0.12485660    -0.10000
C796        C  0.14652345  0.53905464  0.14053824     0.06200
C797        C  0.12173127  0.52062839  0.15410461    -0.03800
C798        C  0.12353151  0.48721742  0.15363949    -0.08200
C799        C  0.14955864  0.47135864  0.13967151     0.05300
C800        C  0.17328950  0.48992352  0.12430046    -0.03200
Br801      Br  0.21059642  0.47250102  0.10424418    -0.02900
H802        H  0.19069279  0.53677406  0.11413243     0.09200
H803        H  0.10461846  0.47356346  0.16488478     0.07300
Br804      Br  0.08449526  0.53924434  0.17304202    -0.03400
C805        C  0.22481921  0.40153012  0.25204261    -0.10000
C806        C  0.22979700  0.38423905  0.22366040     0.06200
C807        C  0.25847266  0.36717175  0.21999967    -0.03800
C808        C  0.28142050  0.36788033  0.24408808    -0.08200
C809        C  0.27651638  0.38489571  0.27251659     0.05300
C810        C  0.24790572  0.40213137  0.27633339    -0.03200
Br811      Br  0.23972134  0.42813182  0.31321357    -0.02900
H812        H  0.20295689  0.41481734  0.25525342     0.09200
H813        H  0.30294038  0.35402932  0.24094690     0.07300
Br814      Br  0.26682730  0.33981466  0.18417905    -0.03400
C815        C  0.25614819  0.28340967  0.10467145    -0.10000
C816        C  0.22757895  0.27750468  0.12113446     0.06200
C817        C  0.22335149  0.24775697  0.13652705    -0.03800
C818        C  0.24732811  0.22472700  0.13501131    -0.08200
C819        C  0.27603368  0.23064330  0.11874952     0.05300
C820        C  0.28020357  0.26037131  0.10324397    -0.03200
Br821      Br  0.31735447  0.27062672  0.07849850    -0.02900
H822        H  0.25970470  0.30604493  0.09257432     0.09200
H823        H  0.24388394  0.20237218  0.14762801     0.07300
Br824      Br  0.18680251  0.23794922  0.16240997    -0.03400
C825        C  0.15337582  0.02141897  0.37633261    -0.10000
C826        C  0.14349525  0.03777021  0.34867804     0.06200
C827        C  0.13205148  0.01975364  0.32239691    -0.03800
C828        C  0.13155103  0.98649394  0.32398971    -0.08200
C829        C  0.14294144  0.97018605  0.35089083     0.05300
C830        C  0.15324909  0.98794978  0.37763148    -0.03200
Br831      Br  0.16681323  0.96797235  0.41664908    -0.02900
H832        H  0.16181516  0.03471986  0.39690300     0.09200
H833        H  0.12388504  0.97320897  0.30310251     0.07300
Br834      Br  0.12004748  0.03799507  0.28193376    -0.03400
C835        C  0.26047454  0.22070017  0.36856374    -0.10000
C836        C  0.22950745  0.22908873  0.37809382     0.06200
C837        C  0.22430012  0.26065119  0.38893038    -0.03800
C838        C  0.24895236  0.28331516  0.38758550    -0.08200
C839        C  0.27961612  0.27530871  0.37672130     0.05300
C840        C  0.28541876  0.24308063  0.36820766    -0.03200
Br841      Br  0.32623421  0.22749105  0.35491612    -0.02900
H842        H  0.26532965  0.19653914  0.36064759     0.09200
H843        H  0.24407918  0.30746740  0.39548716     0.07300
Br844      Br  0.18491425  0.27417188  0.40781542    -0.03400
C845        C  0.28276400  0.12110900  0.25371879    -0.10000
C846        C  0.27381657  0.12508626  0.22156623     0.06200
C847        C  0.24099596  0.12776569  0.21432229    -0.03800
C848        C  0.21852882  0.12717575  0.23894958    -0.08200
C849        C  0.22760398  0.12440445  0.27120158     0.05300
C850        C  0.26037886  0.12092897  0.27836819    -0.03200
Br851      Br  0.27728736  0.11608931  0.32085053    -0.02900
H852        H  0.30765651  0.11859564  0.26003362     0.09200
H853        H  0.19365393  0.12989017  0.23266337     0.07300
Br854      Br  0.22439759  0.13400043  0.17195737    -0.03400
C855        C  0.14191590  0.25964333  0.27650327    -0.10000
C856        C  0.12521746  0.23114291  0.27069925     0.06200
C857        C  0.10896142  0.22723412  0.24143174    -0.03800
C858        C  0.10949555  0.25183373  0.21885878    -0.08200
C859        C  0.12617654  0.28037388  0.22472252     0.05300
C860        C  0.14293087  0.28396719  0.25374630    -0.03200
Br861      Br  0.17020365  0.31983531  0.26273140    -0.02900
H862        H  0.15524289  0.26260007  0.29850283     0.09200
H863        H  0.09669767  0.24866672  0.19659427     0.07300
Br864      Br  0.08461076  0.18964412  0.23119700    -0.03400
C865        C  0.98499984  0.37402387  0.16888098    -0.10000
C866        C  0.96910338  0.36128976  0.14225414     0.06200
C867        C  0.98731794  0.35034606  0.11617758    -0.03800
C868        C  0.02064613  0.35044654  0.11807850    -0.08200
C869        C  0.03658828  0.36171123  0.14546193     0.05300
C870        C  0.01818734  0.37435380  0.17082382    -0.03200
Br871      Br  0.03584847  0.39015580  0.21022415    -0.02900
H872        H  0.97145597  0.38257071  0.18918760     0.09200
H873        H  0.03418566  0.34135735  0.09801792     0.07300
Br874      Br  0.96823623  0.33622338  0.07693053    -0.03400
C875        C  0.98403971  0.12656463  0.33890259    -0.10000
C876        C  0.96759614  0.15357649  0.34993987     0.06200
C877        C  0.98538130  0.17932877  0.36285587    -0.03800
C878        C  0.01857744  0.17811825  0.36318133    -0.08200
C879        C  0.03511730  0.15184650  0.35074746     0.05300
C880        C  0.01738606  0.12532151  0.33944970    -0.03200
Br881      Br  0.03682732  0.08626839  0.32540886    -0.02900
H882        H  0.97087458  0.10627143  0.32960475     0.09200
H883        H  0.03157203  0.19875565  0.37195942     0.07300
Br884      Br  0.96673794  0.21845571  0.37789844    -0.03400
C885        C  0.89586595  0.25619311  0.27104109    -0.10000
C886        C  0.87639914  0.22915750  0.26676091     0.06200
C887        C  0.85729579  0.22712576  0.23906082    -0.03800
C888        C  0.85915939  0.25101869  0.21575259    -0.08200
C889        C  0.87917487  0.27776197  0.21961431     0.05300
C890        C  0.89734738  0.28040801  0.24794746    -0.03200
Br891      Br  0.92568211  0.31556904  0.25628886    -0.02900
H892        H  0.91037334  0.25833746  0.29233476     0.09200
H893        H  0.84408655  0.24908412  0.19483904     0.07300
Br894      Br  0.82607932  0.19398260  0.23276050    -0.03400
C895        C  0.52159322  0.37442517  0.32262698    -0.10000
C896        C  0.53799765  0.36137170  0.34878411     0.06200
C897        C  0.52013064  0.35091918  0.37553755    -0.03800
C898        C  0.48675528  0.35135595  0.37439963    -0.08200
C899        C  0.47040987  0.36267453  0.34734450     0.05300
C900        C  0.48838695  0.37519952  0.32160083    -0.03200
Br901      Br  0.46989053  0.39107608  0.28269552    -0.02900
H902        H  0.53462798  0.38283643  0.30189809     0.09200
H903        H  0.47346803  0.34242844  0.39475031     0.07300
Br904      Br  0.53936006  0.33657698  0.41469325    -0.03400
C905        C  0.74857216  0.22535445  0.38990111    -0.10000
C906        C  0.77541130  0.22966413  0.37031173     0.06200
C907        C  0.77816719  0.25796030  0.35202744    -0.03800
C908        C  0.75473921  0.28136441  0.35413739    -0.08200
C909        C  0.72792322  0.27702762  0.37356288     0.05300
C910        C  0.72487768  0.24874431  0.39162960    -0.03200
Br911      Br  0.68983273  0.24165452  0.42019814    -0.02900
H912        H  0.74620120  0.20389409  0.40423745     0.09200
H913        H  0.75694820  0.30271111  0.33958143     0.07300
Br914      Br  0.81173727  0.26523642  0.32162813    -0.03400
C915        C  0.75730094  0.36063521  0.27323883    -0.10000
C916        C  0.73214767  0.38250657  0.27137684     0.06200
C917        C  0.73076150  0.40369376  0.24516230    -0.03800
C918        C  0.75404560  0.40236359  0.22124780    -0.08200
C919        C  0.77916479  0.38039114  0.22305448     0.05300
C920        C  0.78052051  0.35921659  0.24938088    -0.03200
Br921      Br  0.81184789  0.32603833  0.25304191    -0.02900
H922        H  0.75834594  0.34377603  0.29289485     0.09200
H923        H  0.75281139  0.41897829  0.20140514     0.07300
Br924      Br  0.69881807  0.43620987  0.24179741    -0.03400
C925        C  0.51964222  0.13382153  0.16784157    -0.10000
C926        C  0.53559240  0.14851682  0.14223334     0.06200
C927        C  0.51727771  0.16189051  0.11726229    -0.03800
C928        C  0.48400749  0.16208054  0.11941983    -0.08200
C929        C  0.46807913  0.14916903  0.14607097     0.05300
C930        C  0.48647256  0.13420517  0.17020772    -0.03200
Br931      Br  0.46906537  0.11621850  0.20878225    -0.02900
H932        H  0.53312786  0.12338380  0.18729268     0.09200
H933        H  0.47053276  0.17299838  0.10023371     0.07300
Br934      Br  0.53578109  0.17994091  0.07930535    -0.03400
C935        C  0.74457204  0.28732438  0.11770266    -0.10000
C936        C  0.77681926  0.27831860  0.11657024     0.06200
C937        C  0.78415569  0.24537927  0.11478786    -0.03800
C938        C  0.75964045  0.22273447  0.11495992    -0.08200
C939        C  0.72745885  0.23171547  0.11677991     0.05300
C940        C  0.72005066  0.26466908  0.11777379    -0.03200
Br941      Br  0.67747607  0.28126300  0.12056195    -0.02900
H942        H  0.73816333  0.31232552  0.11889412     0.09200
H943        H  0.76600385  0.19771411  0.11391059     0.07300
Br944      Br  0.82669764  0.22861547  0.11312651    -0.03400
C945        C  0.74896163  0.14377803  0.27313398    -0.10000
C946        C  0.77546760  0.12392494  0.26880363     0.06200
C947        C  0.77747915  0.10524393  0.24084876    -0.03800
C948        C  0.75332215  0.10710520  0.21779967    -0.08200
C949        C  0.72684355  0.12713848  0.22218368     0.05300
C950        C  0.72494958  0.14572787  0.25026375    -0.03200
Br951      Br  0.69179009  0.17631004  0.25821412    -0.02900
H952        H  0.74730794  0.15877547  0.29415666     0.09200
H953        H  0.75505435  0.09249957  0.19652853     0.07300
Br954      Br  0.81142620  0.07551786  0.23362372    -0.03400
C955        C  0.64396341  0.25951983  0.21510113    -0.10000
C956        C  0.62450179  0.23246822  0.21911642     0.06200
C957        C  0.60627425  0.22954203  0.24732294    -0.03800
C958        C  0.60793897  0.25343002  0.27064094    -0.08200
C959        C  0.62742372  0.28048703  0.26658002     0.05300
C960        C  0.64590261  0.28317955  0.23851652    -0.03200
Br961      Br  0.67656330  0.31675270  0.23187706    -0.02900
H962        H  0.65884261  0.26175890  0.19396740     0.09200
H963        H  0.59355982  0.25096182  0.29210713     0.07300
Br964      Br  0.57764473  0.19441456  0.25490162    -0.03400
C965        C  0.51737364  0.65680869  0.37498512    -0.10000
C966        C  0.53343667  0.65064056  0.34620394     0.06200
C967        C  0.51535488  0.64569616  0.31816447    -0.03800
C968        C  0.48212141  0.64591421  0.31962258    -0.08200
C969        C  0.46600720  0.65236662  0.34830266     0.05300
C970        C  0.48404510  0.65804234  0.37621409    -0.03200
Br971      Br  0.46479861  0.66730556  0.41671899    -0.02900
H972        H  0.53087827  0.66124436  0.39662835     0.09200
H973        H  0.46876033  0.64264310  0.29767850     0.07300
Br974      Br  0.53420908  0.64278699  0.27641842    -0.03400
C975        C  0.67401529  0.52363024  0.36576796    -0.10000
C976        C  0.64832184  0.53962466  0.35151967     0.06200
C977        C  0.62294703  0.52119558  0.33905056    -0.03800
C978        C  0.62481113  0.48772534  0.33916626    -0.08200
C979        C  0.65147148  0.47168528  0.35177553     0.05300
C980        C  0.67592838  0.49030023  0.36605308    -0.03200
Br981      Br  0.71401619  0.47295232  0.38473177    -0.02900
H982        H  0.69371706  0.53719852  0.37568864     0.09200
H983        H  0.60531209  0.47417951  0.32883660     0.07300
Br984      Br  0.58468894  0.53997014  0.32236995    -0.03400
C985        C  0.51836681  0.88428716  0.15404259    -0.10000
C986        C  0.53492963  0.85815903  0.14108368     0.06200
C987        C  0.51692469  0.83323811  0.12670362    -0.03800
C988        C  0.48364102  0.83444555  0.12675232    -0.08200
C989        C  0.46713604  0.85974218  0.14112182     0.05300
C990        C  0.48497937  0.88536892  0.15410500    -0.03200
Br991      Br  0.46552110  0.92296297  0.17162033    -0.02900
H992        H  0.53146483  0.90397262  0.16465619     0.09200
H993        H  0.47052888  0.81446199  0.11671927     0.07300
Br994      Br  0.53518058  0.79514567  0.10879653    -0.03400
C995        C  0.62293480  0.98924386  0.15350827    -0.10000
C996        C  0.64673689  0.97242974  0.13703593     0.06200
C997        C  0.66806252  0.98996389  0.11738481    -0.03800
C998        C  0.66760802  0.02332243  0.11792353    -0.08200
C999        C  0.64592808  0.04007307  0.13709723     0.05300
C1000       C  0.62207622  0.02259093  0.15344394    -0.03200
Br1001     Br  0.58736951  0.04212743  0.17607643    -0.02900
H1002       H  0.60529669  0.97648130  0.16751432     0.09200
H1003       H  0.68533632  0.03618168  0.10410867     0.07300
Br1004     Br  0.69900086  0.97090027  0.08942817    -0.03400
C1005       C  0.61400369  0.75253632  0.21800682    -0.10000
C1006       C  0.62077619  0.78416905  0.22717995     0.06200
C1007       C  0.62509485  0.79078006  0.26007332    -0.03800
C1008       C  0.62372040  0.76585619  0.28226785    -0.08200
C1009       C  0.61912400  0.73392563  0.27280152     0.05300
C1010       C  0.61319165  0.72760933  0.24013576    -0.03200
Br1011     Br  0.60332986  0.68604204  0.22314754    -0.02900
H1012       H  0.60973773  0.74679406  0.19314669     0.09200
H1013       H  0.62703384  0.77160271  0.30718543     0.07300
Br1014     Br  0.63430552  0.83249000  0.27717101    -0.03400
C1015       C  0.87967749  0.52197748  0.14873039    -0.10000
C1016       C  0.85240602  0.53804891  0.13771939     0.06200
C1017       C  0.82683565  0.51973317  0.12531335    -0.03800
C1018       C  0.82868200  0.48643810  0.12503576    -0.08200
C1019       C  0.85512637  0.47037642  0.13768137     0.05300
C1020       C  0.88124383  0.48854050  0.14887787    -0.03200
Br1021     Br  0.91982073  0.46933933  0.16427570    -0.02900
H1022       H  0.89975205  0.53549558  0.15794129     0.09200
H1023       H  0.80825634  0.47295000  0.11657675     0.07300
Br1024     Br  0.78695251  0.53768569  0.11175670    -0.03400
C1025       C  0.98342951  0.63466830  0.16713667    -0.10000
C1026       C  0.96699721  0.64852719  0.14147252     0.06200
C1027       C  0.98481011  0.66191496  0.11601500    -0.03800
C1028       C  0.01815471  0.66232888  0.11750249    -0.08200
C1029       C  0.03445870  0.64971892  0.14396638     0.05300
C1030       C  0.01655790  0.63549245  0.16889941    -0.03200
Br1031     Br  0.03481439  0.61991949  0.20809285    -0.02900
H1032       H  0.97037055  0.62471442  0.18717125     0.09200
H1033       H  0.03141354  0.67302116  0.09798498     0.07300
Br1034     Br  0.96551600  0.67979360  0.07841110    -0.03400
C1035       C  0.78133087  0.64054796  0.25220949    -0.10000
C1036       C  0.77527487  0.62545368  0.22284053     0.06200
C1037       C  0.74508223  0.61119358  0.21785865    -0.03800
C1038       C  0.72157788  0.61327937  0.24153089    -0.08200
C1039       C  0.72757603  0.62878776  0.27068598     0.05300
C1040       C  0.75799545  0.64235769  0.27593730    -0.03200
Br1041     Br  0.76874294  0.66592594  0.31385889    -0.02900
H1042       H  0.80413054  0.65197854  0.25646691     0.09200
H1043       H  0.69856499  0.60225761  0.23729675     0.07300
Br1044     Br  0.73481933  0.58699947  0.18021621    -0.03400
C1045       C  0.74852893  0.72759734  0.14055964    -0.10000
C1046       C  0.77588425  0.73226305  0.12184729     0.06200
C1047       C  0.77929587  0.76104684  0.10450770    -0.03800
C1048       C  0.75512677  0.78396310  0.10556092    -0.08200
C1049       C  0.72761756  0.77908913  0.12407638     0.05300
C1050       C  0.72481812  0.75079179  0.14226840    -0.03200
Br1051     Br  0.69094974  0.74344521  0.17230516    -0.02900
H1052       H  0.74602305  0.70614058  0.15486822     0.09200
H1053       H  0.75780204  0.80566999  0.09167050     0.07300
Br1054     Br  0.81565448  0.77021014  0.07815725    -0.03400
C1055       C  0.98361959  0.88135815  0.34406052    -0.10000
C1056       C  0.96717712  0.85271405  0.35045240     0.06200
C1057       C  0.98494966  0.82487689  0.35748963    -0.03800
C1058       C  0.01809123  0.82633141  0.35851717    -0.08200
C1059       C  0.03448534  0.85461441  0.35124110     0.05300
C1060       C  0.01697505  0.88244577  0.34407756    -0.03200
Br1061     Br  0.03718325  0.92258631  0.33451260    -0.02900
H1062       H  0.97049991  0.90291980  0.33853458     0.09200
H1063       H  0.03123908  0.80455395  0.36312208     0.07300
Br1064     Br  0.96637503  0.78297838  0.36191861    -0.03400
C1065       C  0.84603302  0.98700816  0.37684868    -0.10000
C1066       C  0.86093999  0.96993258  0.35211439     0.06200
C1067       C  0.87811690  0.98749536  0.32867907    -0.03800
C1068       C  0.87717517  0.02084159  0.32872718    -0.08200
C1069       C  0.86001142  0.03778115  0.35188478     0.05300
C1070       C  0.84574599  0.02046439  0.37718865    -0.03200
Br1071     Br  0.82612178  0.04056947  0.41342123    -0.02900
H1072       H  0.83381265  0.97432221  0.39583403     0.09200
H1073       H  0.88906753  0.03355798  0.30955097     0.07300
Br1074     Br  0.90278456  0.96870357  0.29484046    -0.03400
C1075       C  0.74204931  0.78811022  0.36998625    -0.10000
C1076       C  0.77275484  0.78001678  0.38034646     0.06200
C1077       C  0.77822434  0.74853417  0.39140984    -0.03800
C1078       C  0.75393791  0.72568917  0.38965112    -0.08200
C1079       C  0.72369866  0.73348882  0.37776235     0.05300
C1080       C  0.71766629  0.76540047  0.36862384    -0.03200
Br1081     Br  0.67765663  0.77971811  0.35198812    -0.02900
H1082       H  0.73710792  0.81205749  0.36192181     0.09200
H1083       H  0.75875202  0.70159946  0.39776195     0.07300
Br1084     Br  0.81746868  0.73494493  0.41056154    -0.03400
C1085       C  0.78244902  0.89333980  0.24274278    -0.10000
C1086       C  0.77403961  0.88486960  0.27417710     0.06200
C1087       C  0.74145892  0.87890335  0.28084803    -0.03800
C1088       C  0.71876081  0.88033979  0.25632505    -0.08200
C1089       C  0.72736889  0.88773841  0.22475629     0.05300
C1090       C  0.75968212  0.89507993  0.21831004    -0.03200
Br1091     Br  0.77461167  0.90898767  0.17714476    -0.02900
H1092       H  0.80699970  0.89878915  0.23700705     0.09200
H1093       H  0.69423534  0.87466447  0.26191646     0.07300
Br1094     Br  0.72572209  0.86702819  0.32221752    -0.03400
C1095       C  0.88979156  0.74640141  0.27860694    -0.10000
C1096       C  0.87706572  0.77659142  0.27146806     0.06200
C1097       C  0.86588896  0.78263187  0.24023698    -0.03800
C1098       C  0.86782382  0.75886747  0.21708360    -0.08200
C1099       C  0.88014410  0.72847547  0.22413307     0.05300
C1100       C  0.89140693  0.72238430  0.25541558    -0.03200
Br1101     Br  0.90993276  0.68246181  0.26830819    -0.02900
H1102       H  0.89868628  0.74144221  0.30240790     0.09200
H1103       H  0.85842398  0.76402576  0.19351836     0.07300
Br1104     Br  0.84502754  0.82157255  0.22777508    -0.03400
C1105       C  0.16316796  0.37736786  0.97832646    -0.10000
C1106       C  0.14973058  0.35094901  0.96242319     0.06200
C1107       C  0.13493542  0.32682482  0.98107391    -0.03800
C1108       C  0.13458362  0.32933935  0.01443163    -0.08200
C1109       C  0.14911921  0.35514847  0.03037481     0.05300
C1110       C  0.16309998  0.37967214  0.01171301    -0.03200
Br1111     Br  0.18231327  0.41730222  0.02971714    -0.02900
H1112       H  0.17432683  0.39639439  0.96468688     0.09200
H1113       H  0.12398802  0.30999445  0.02807590     0.07300
Br1114     Br  0.11694991  0.28828914  0.96352047    -0.03400
C1115       C  0.37161073  0.17609241  0.97863997    -0.10000
C1116       C  0.36109275  0.14840765  0.96279492     0.06200
C1117       C  0.35168383  0.12174783  0.98141422    -0.03800
C1118       C  0.35108126  0.12407253  0.01483492    -0.08200
C1119       C  0.36010404  0.15239636  0.03052704     0.05300
C1120       C  0.37112721  0.17842435  0.01190388    -0.03200
Br1121     Br  0.38300055  0.21924390  0.02945590    -0.02900
H1122       H  0.37882210  0.19695403  0.96501598     0.09200
H1123       H  0.34316398  0.10360423  0.02866140     0.07300
Br1124     Br  0.34006851  0.08125555  0.96311344    -0.03400
C1125       C  0.25764568  0.27760562  0.88924419    -0.10000
C1126       C  0.22965341  0.27202834  0.87164598     0.06200
C1127       C  0.22607444  0.24277203  0.85519070    -0.03800
C1128       C  0.25024835  0.21999429  0.85663580    -0.08200
C1129       C  0.27830005  0.22572694  0.87398795     0.05300
C1130       C  0.28178479  0.25473265  0.89068159    -0.03200
Br1131     Br  0.31799299  0.26365469  0.91728131    -0.02900
H1132       H  0.26063386  0.29976302  0.90226976     0.09200
H1133       H  0.24752559  0.19803342  0.84326728     0.07300
Br1134     Br  0.19019238  0.23317214  0.82825983    -0.03400
C1135       C  0.35385605  0.38014876  0.51426997    -0.10000
C1136       C  0.36283387  0.35190672  0.52996407     0.06200
C1137       C  0.37314175  0.32555390  0.51171144    -0.03800
C1138       C  0.37315918  0.32750823  0.47849590    -0.08200
C1139       C  0.36264049  0.35511722  0.46270574     0.05300
C1140       C  0.35385769  0.38203913  0.48090337    -0.03200
Br1141     Br  0.34251366  0.42212262  0.46171601    -0.02900
H1142       H  0.34641761  0.40074707  0.52804734     0.09200
H1143       H  0.37974218  0.30649434  0.46489685     0.07300
Br1144     Br  0.38388899  0.28484457  0.53009644    -0.03400
C1145       C  0.36206235  0.24682731  0.71662469    -0.10000
C1146       C  0.38082444  0.27428494  0.72135718     0.06200
C1147       C  0.39862677  0.27709997  0.74987294    -0.03800
C1148       C  0.39741078  0.25264991  0.77265078    -0.08200
C1149       C  0.37869439  0.22520746  0.76775425     0.05300
C1150       C  0.36061249  0.22261570  0.73945576    -0.03200
Br1151     Br  0.33129988  0.18824633  0.73135869    -0.02900
H1152       H  0.34759498  0.24447912  0.69528625     0.09200
H1153       H  0.41144328  0.25499667  0.79426079     0.07300
Br1154     Br  0.42605757  0.31269412  0.75898323    -0.03400
C1155       C  0.22776850  0.39436478  0.74190477    -0.10000
C1156       C  0.23355632  0.37857866  0.77099853     0.06200
C1157       C  0.26329179  0.36349116  0.77555504    -0.03800
C1158       C  0.28588454  0.36380234  0.75109463    -0.08200
C1159       C  0.28003216  0.37926007  0.72184933     0.05300
C1160       C  0.25076396  0.39528173  0.71766271    -0.03200
Br1161     Br  0.24137470  0.42068098  0.68060167    -0.02900
H1162       H  0.20538320  0.40657304  0.73817241     0.09200
H1163       H  0.30808154  0.35126544  0.75488599     0.07300
Br1164     Br  0.27448565  0.34036420  0.81365801    -0.03400
C1165       C  0.16748900  0.12916417  0.47885994    -0.10000
C1166       C  0.14447218  0.14722549  0.46259770     0.06200
C1167       C  0.12030049  0.16225025  0.48060237    -0.03800
C1168       C  0.12161447  0.16152689  0.51398321    -0.08200
C1169       C  0.14627767  0.14561689  0.53024688     0.05300
C1170       C  0.16849799  0.12789125  0.51209762    -0.03200
Br1171     Br  0.20142854  0.10147959  0.53004595    -0.02900
H1172       H  0.18578128  0.11659644  0.46568300     0.09200
H1173       H  0.10351692  0.17429534  0.52723124     0.07300
Br1174     Br  0.08452683  0.18379059  0.46174634    -0.03400
C1175       C  0.13951530  0.25908629  0.71332838    -0.10000
C1176       C  0.12334483  0.23016255  0.71917365     0.06200
C1177       C  0.10811812  0.22579191  0.74903232    -0.03800
C1178       C  0.10968580  0.24988061  0.77207710    -0.08200
C1179       C  0.12619034  0.27851281  0.76626667     0.05300
C1180       C  0.14135327  0.28296451  0.73651244    -0.03200
Br1181     Br  0.16765586  0.31944388  0.72688909    -0.02900
H1182       H  0.15197801  0.26277526  0.69097923     0.09200
H1183       H  0.09791131  0.24615707  0.79480076     0.07300
Br1184     Br  0.08421575  0.18815981  0.76028246    -0.03400
C1185       C  0.21868228  0.12659018  0.75595599    -0.10000
C1186       C  0.22715407  0.12431092  0.72354716     0.06200
C1187       C  0.25980898  0.12054469  0.71588192    -0.03800
C1188       C  0.28252917  0.11882915  0.74025514    -0.08200
C1189       C  0.27417734  0.12167935  0.77266257     0.05300
C1190       C  0.24149882  0.12548525  0.78032145    -0.03200
Br1191     Br  0.22533492  0.12996014  0.82306727    -0.02900
H1192       H  0.19393929  0.12955086  0.76261726     0.09200
H1193       H  0.30725598  0.11601628  0.73350721     0.07300
Br1194     Br  0.27629436  0.11917684  0.67299937    -0.03400
C1195       C  0.26107465  0.21767833  0.61611166    -0.10000
C1196       C  0.22887713  0.22700905  0.61639490     0.06200
C1197       C  0.22199185  0.26010673  0.61554474    -0.03800
C1198       C  0.24682104  0.28250293  0.61494697    -0.08200
C1199       C  0.27900531  0.27322885  0.61567317     0.05300
C1200       C  0.28593368  0.24011912  0.61589969    -0.03200
Br1201     Br  0.32836790  0.22307904  0.61767653    -0.02900
H1202       H  0.26717364  0.19255682  0.61666430     0.09200
H1203       H  0.24067347  0.30761628  0.61467820     0.07300
Br1204     Br  0.17965011  0.27735906  0.61721901    -0.03400
C1205       C  0.33110638  0.48228342  0.62469950    -0.10000
C1206       C  0.35785354  0.46606571  0.63641889     0.06200
C1207       C  0.38457125  0.48405810  0.64631012    -0.03800
C1208       C  0.38304516  0.51750109  0.64678530    -0.08200
C1209       C  0.35534357  0.53378158  0.63723482     0.05300
C1210       C  0.32946461  0.51561262  0.62506227    -0.03200
Br1211     Br  0.28968828  0.53363117  0.61119071    -0.02900
H1212       H  0.31039745  0.46888550  0.61680663     0.09200
H1213       H  0.40355482  0.53083182  0.65527725     0.07300
Br1214     Br  0.42402021  0.46447511  0.65859088    -0.03400
C1215       C  0.35402548  0.62350063  0.51488450    -0.10000
C1216       C  0.35758147  0.65247239  0.53156846     0.06200
C1217       C  0.36144011  0.68111185  0.51404919    -0.03800
C1218       C  0.36083408  0.68041198  0.48078241    -0.08200
C1219       C  0.35627740  0.65171805  0.46411337     0.05300
C1220       C  0.35363330  0.62290154  0.48136693    -0.03200
Br1221     Br  0.35111464  0.58224248  0.46031937    -0.02900
H1222       H  0.35149130  0.60126920  0.52796926     0.09200
H1223       H  0.36262905  0.70279726  0.46782124     0.07300
Br1224     Br  0.36450855  0.72257918  0.53364251    -0.03400
C1225       C  0.17840058  0.51895320  0.86726377    -0.10000
C1226       C  0.15233044  0.53495247  0.85365853     0.06200
C1227       C  0.12681343  0.51657678  0.84133813    -0.03800
C1228       C  0.12846530  0.48322669  0.84178130    -0.08200
C1229       C  0.15528742  0.46727068  0.85389005     0.05300
C1230       C  0.18039718  0.48566234  0.86707867    -0.03200
Br1231     Br  0.21986133  0.46789587  0.88206573    -0.02900
H1232       H  0.19845067  0.53243297  0.87653023     0.09200
H1233       H  0.10879725  0.46966837  0.83180728     0.07300
Br1234     Br  0.08893589  0.53484918  0.82337049    -0.03400
C1235       C  0.13366400  0.67516842  0.97924129    -0.10000
C1236       C  0.14570909  0.64812184  0.96363312     0.06200
C1237       C  0.15725831  0.62236629  0.98214826    -0.03800
C1238       C  0.15728672  0.62462699  0.01547381    -0.08200
C1239       C  0.14628153  0.65223649  0.03089440     0.05300
C1240       C  0.13439334  0.67774812  0.01234781    -0.03200
Br1241     Br  0.12264061  0.71853872  0.02985139    -0.02900
H1242       H  0.12546560  0.69556141  0.96555081     0.09200
H1243       H  0.16641641  0.60482594  0.02942739     0.07300
Br1244     Br  0.17323826  0.58349234  0.96384537    -0.03400
C1245       C  0.22486504  0.61060787  0.74389632    -0.10000
C1246       C  0.23274972  0.62350043  0.77391658     0.06200
C1247       C  0.26424636  0.63447887  0.77907486    -0.03800
C1248       C  0.28641732  0.63321618  0.75421011    -0.08200
C1249       C  0.27826857  0.62100219  0.72398912     0.05300
C1250       C  0.24718478  0.60901798  0.71919615    -0.03200
Br1251     Br  0.23393805  0.58850261  0.68035840    -0.02900
H1252       H  0.20111720  0.60135140  0.73958081     0.09200
H1253       H  0.31012927  0.64264988  0.75840380     0.07300
Br1254     Br  0.27871999  0.65303370  0.81855349    -0.03400
C1255       C  0.33634159  0.98243373  0.86811830    -0.10000
C1256       C  0.36125701  0.96609238  0.85298003     0.06200
C1257       C  0.38661985  0.98405901  0.83986766    -0.03800
C1258       C  0.38511428  0.01755659  0.83978923    -0.08200
C1259       C  0.35890199  0.03380085  0.85299785     0.05300
C1260       C  0.33480013  0.01560883  0.86829844    -0.03200
Br1261     Br  0.29722043  0.03309259  0.88794651    -0.02900
H1262       H  0.31670032  0.96931963  0.87870476     0.09200
H1263       H  0.40435861  0.03092628  0.82879493     0.07300
Br1264     Br  0.42418554  0.96462892  0.82250486    -0.03400
C1265       C  0.32625861  0.87006810  0.98004615    -0.10000
C1266       C  0.35349431  0.85877027  0.96421935     0.06200
C1267       C  0.38062861  0.85092476  0.98256572    -0.03800
C1268       C  0.37903040  0.85196067  0.01594985    -0.08200
C1269       C  0.35113520  0.86160142  0.03170913     0.05300
C1270       C  0.32485203  0.87172946  0.01326956    -0.03200
Br1271     Br  0.28512777  0.88558717  0.03130344    -0.02900
H1272       H  0.30519366  0.87654459  0.96657294     0.09200
H1273       H  0.39973085  0.84493718  0.02972389     0.07300
Br1274     Br  0.42086717  0.83974571  0.96390232    -0.03400
C1275       C  0.39744703  0.77470436  0.74845938    -0.10000
C1276       C  0.37855342  0.76985856  0.77574322     0.06200
C1277       C  0.36232430  0.74034398  0.77928085    -0.03800
C1278       C  0.36471539  0.71701566  0.75547197    -0.08200
C1279       C  0.38294460  0.72226712  0.72784706     0.05300
C1280       C  0.39997643  0.75125786  0.72480586    -0.03200
Br1281     Br  0.42846524  0.75962934  0.68987965    -0.02900
H1282       H  0.41070434  0.79680582  0.74562994     0.09200
H1283       H  0.35124218  0.69500270  0.75807559     0.07300
Br1284     Br  0.33463853  0.73086844  0.81464812    -0.03400
C1285       C  0.27537802  0.75302957  0.89691614    -0.10000
C1286       C  0.27185255  0.77883947  0.87573615     0.06200
C1287       C  0.24475705  0.78011336  0.85578749    -0.03800
C1288       C  0.22183336  0.75600735  0.85762687    -0.08200
C1289       C  0.22572348  0.72994741  0.87830160     0.05300
C1290       C  0.25269423  0.72858528  0.89824352    -0.03200
Br1291     Br  0.25928680  0.69460135  0.92833974    -0.02900
H1292       H  0.29600236  0.75178193  0.91247100     0.09200
H1293       H  0.20149394  0.75685920  0.84165720     0.07300
Br1294     Br  0.23907025  0.81189061  0.82311230    -0.03400
C1295       C  0.12831644  0.83313054  0.51361907    -0.10000
C1296       C  0.14565935  0.85651228  0.53026500     0.06200
C1297       C  0.15926698  0.88207002  0.51280713    -0.03800
C1298       C  0.15834980  0.88179421  0.47941807    -0.08200
C1299       C  0.14330185  0.85689547  0.46256616     0.05300
C1300       C  0.12656591  0.83326789  0.48029401    -0.03200
Br1301     Br  0.10079272  0.80004175  0.46159181    -0.02900
H1302       H  0.11675001  0.81387050  0.52652262     0.09200
H1303       H  0.17017311  0.90097067  0.46662774     0.07300
Br1304     Br  0.17859283  0.91869881  0.53268451    -0.03400
C1305       C  0.12721965  0.98356944  0.65719831    -0.10000
C1306       C  0.15204199  0.96766549  0.64129095     0.06200
C1307       C  0.17514341  0.98632484  0.62500786    -0.03800
C1308       C  0.17338442  0.01964390  0.62565701    -0.08200
C1309       C  0.14927763  0.03556452  0.64246227     0.05300
C1310       C  0.12551230  0.01704196  0.65777922    -0.03200
Br1311     Br  0.08947271  0.03557303  0.67895869    -0.02900
H1312       H  0.10899912  0.96987739  0.66949570     0.09200
H1313       H  0.19202748  0.03324536  0.61390242     0.07300
Br1314     Br  0.21163504  0.96886272  0.60355337    -0.03400
C1315       C  0.25911783  0.78072842  0.63851755    -0.10000
C1316       C  0.23312846  0.77730938  0.61762532     0.06200
C1317       C  0.23118582  0.74982924  0.59819805    -0.03800
C1318       C  0.25457502  0.72619514  0.60053778    -0.08200
C1319       C  0.28041086  0.72961373  0.62159394     0.05300
C1320       C  0.28264366  0.75732282  0.64063245    -0.03200
Br1321     Br  0.31576916  0.76363187  0.67176876    -0.02900
H1322       H  0.26062867  0.80123552  0.65409944     0.09200
H1323       H  0.25283496  0.70525038  0.58545376     0.07300
Br1324     Br  0.19834873  0.74398395  0.56679013    -0.03400
C1325       C  0.11468134  0.77883458  0.74968196    -0.10000
C1326       C  0.13204187  0.77295176  0.72161630     0.06200
C1327       C  0.14803386  0.74343050  0.71836025    -0.03800
C1328       C  0.14574809  0.72054593  0.74254057    -0.08200
C1329       C  0.12836803  0.72645109  0.77052659     0.05300
C1330       C  0.11278382  0.75605412  0.77404977    -0.03200
Br1331     Br  0.08735181  0.76650209  0.81068998    -0.02900
H1332       H  0.10215886  0.80122914  0.75261564     0.09200
H1333       H  0.15854204  0.69826309  0.73983223     0.07300
Br1334     Br  0.17544331  0.73329316  0.68300854    -0.03400
C1335       C  0.28825913  0.87754211  0.73730293    -0.10000
C1336       C  0.27958718  0.88401270  0.76908472     0.06200
C1337       C  0.24751889  0.89228224  0.77555457    -0.03800
C1338       C  0.22494419  0.89119746  0.75108694    -0.08200
C1339       C  0.23337750  0.88304231  0.71971310     0.05300
C1340       C  0.26579327  0.87734401  0.71269856    -0.03200
Br1341     Br  0.28149858  0.86758801  0.67072155    -0.02900
H1342       H  0.31270208  0.87178834  0.73143846     0.09200
H1343       H  0.20040496  0.89678770  0.75675264     0.07300
Br1344     Br  0.23207004  0.90590495  0.81659635    -0.03400
C1345       C  0.48725895  0.34668157  0.61756371    -0.10000
C1346       C  0.47113596  0.35506428  0.64566335     0.06200
C1347       C  0.48895186  0.36454418  0.67265413    -0.03800
C1348       C  0.52210414  0.36477179  0.67133926    -0.08200
C1349       C  0.53843496  0.35560586  0.64357414     0.05300
C1350       C  0.52057391  0.34718932  0.61613455    -0.03200
Br1351     Br  0.53977851  0.33728973  0.57569577    -0.02900
H1352       H  0.47382691  0.33975816  0.59652229     0.09200
H1353       H  0.53519756  0.37097521  0.69280605     0.07300
Br1354     Br  0.46992040  0.37467001  0.71310421    -0.03400
C1355       C  0.65395373  0.38298112  0.51268032    -0.10000
C1356       C  0.64463896  0.35483904  0.52866520     0.06200
C1357       C  0.63262430  0.32903780  0.51032991    -0.03800
C1358       C  0.63307613  0.33081921  0.47709627    -0.08200
C1359       C  0.64492999  0.35785930  0.46107718     0.05300
C1360       C  0.65381386  0.38486829  0.47928132    -0.03200
Br1361     Br  0.66502057  0.42524195  0.46037950    -0.02900
H1362       H  0.66195805  0.40358687  0.52621253     0.09200
H1363       H  0.62541372  0.30999840  0.46370178     0.07300
Br1364     Br  0.61723928  0.28936397  0.52794027    -0.03400
C1365       C  0.52162618  0.12476361  0.83173767    -0.10000
C1366       C  0.53780645  0.14953790  0.84769845     0.06200
C1367       C  0.51960509  0.17293540  0.86378610    -0.03800
C1368       C  0.48642146  0.17118162  0.86338317    -0.08200
C1369       C  0.47010976  0.14701364  0.84665457     0.14900
C1370       C  0.48828228  0.12328619  0.83094314    -0.03200
Br1371     Br  0.46983926  0.08809838  0.80782925    -0.02900
H1372       H  0.53502143  0.10650166  0.81931395     0.09200
H1373       H  0.47328663  0.18996906  0.87527798     0.07300
Br1374     Br  0.53754989  0.20995131  0.88440920    -0.03400
C1375       C  0.63346338  0.17263877  0.97701323    -0.10000
C1376       C  0.64848715  0.14696899  0.96146825     0.06200
C1377       C  0.66226737  0.12256797  0.98043712    -0.03800
C1378       C  0.66182803  0.12514914  0.01375786    -0.08200
C1379       C  0.64791183  0.15150521  0.02900089     0.05300
C1380       C  0.63341157  0.17536279  0.01017634    -0.03200
Br1381     Br  0.61619243  0.21423714  0.02745921    -0.02900
H1382       H  0.62283767  0.19183289  0.96330744     0.09200
H1383       H  0.67292427  0.10652240  0.02789995     0.07300
Br1384     Br  0.68271794  0.08526855  0.96331206    -0.03400
C1385       C  0.63691370  0.25915383  0.77836443    -0.10000
C1386       C  0.62655209  0.22845989  0.76949795     0.06200
C1387       C  0.61553563  0.22339510  0.73813356    -0.03800
C1388       C  0.61658272  0.24831931  0.71601706    -0.08200
C1389       C  0.62791943  0.27888431  0.72440793     0.05300
C1390       C  0.63754496  0.28434493  0.75641166    -0.03200
Br1391     Br  0.65272473  0.32479016  0.77227777    -0.02900
H1392       H  0.64526530  0.26349575  0.80251145     0.09200
H1393       H  0.60814517  0.24363655  0.69197932     0.07300
Br1394     Br  0.59687548  0.18374545  0.72438294    -0.03400
C1395       C  0.98761228  0.38073217  0.83701352    -0.10000
C1396       C  0.97139874  0.35427586  0.85015893     0.06200
C1397       C  0.98972197  0.33006423  0.86504079    -0.03800
C1398       C  0.02292088  0.33178503  0.86448796    -0.08200
C1399       C  0.03923811  0.35719775  0.84965786     0.05300
C1400       C  0.02100887  0.38258702  0.83688326    -0.03200
Br1401     Br  0.03961450  0.42080078  0.81938942    -0.02900
H1402       H  0.97424095  0.40007622  0.82625906     0.09200
H1403       H  0.03606458  0.31213051  0.87493837     0.07300
Br1404     Br  0.97215276  0.29258187  0.88526542    -0.03400
C1405       C  0.83999823  0.37743544  0.97589893    -0.10000
C1406       C  0.85666010  0.35303369  0.95997970     0.06200
C1407       C  0.87443076  0.33111880  0.97872489    -0.03800
C1408       C  0.87431243  0.33349192  0.01202731    -0.08200
C1409       C  0.85659209  0.35697264  0.02796159     0.05300
C1410       C  0.83987368  0.37966183  0.00936753    -0.03200
Br1411     Br  0.81706688  0.41485461  0.02775738    -0.02900
H1412       H  0.82665973  0.39486816  0.96227032     0.09200
H1413       H  0.88727303  0.31573614  0.02563576     0.07300
Br1414     Br  0.89791675  0.29558467  0.96165769    -0.03400
C1415       C  0.75564707  0.39870404  0.76743823    -0.10000
C1416       C  0.78153495  0.37789305  0.76372044     0.06200
C1417       C  0.78337196  0.35892722  0.73589172    -0.03800
C1418       C  0.75951518  0.36096089  0.71271212    -0.08200
C1419       C  0.73341841  0.38148280  0.71657783     0.05300
C1420       C  0.73183187  0.40082918  0.74412233    -0.03200
Br1421     Br  0.69885957  0.43183641  0.75047257    -0.02900
H1422       H  0.75411733  0.41369834  0.78846419     0.09200
H1423       H  0.76087543  0.34555006  0.69195719     0.07300
Br1424     Br  0.81625933  0.32785033  0.72911472    -0.03400
C1425       C  0.72825496  0.25020975  0.84859067    -0.10000
C1426       C  0.73033681  0.22516427  0.87085671     0.06200
C1427       C  0.75746505  0.22328354  0.89073098    -0.03800
C1428       C  0.78104612  0.24699047  0.88888948    -0.08200
C1429       C  0.77835808  0.27252507  0.86726627     0.05300
C1430       C  0.75211580  0.27338801  0.84624897    -0.03200
Br1431     Br  0.74889254  0.30377451  0.81192555    -0.02900
H1432       H  0.70830412  0.25127377  0.83215126     0.09200
H1433       H  0.80135884  0.24575692  0.90484457     0.07300
Br1434     Br  0.76315094  0.18993764  0.92174610    -0.03400
C1435       C  0.83153105  0.13030325  0.47602420    -0.10000
C1436       C  0.85515709  0.14787666  0.45990767     0.06200
C1437       C  0.87946172  0.16270636  0.47800325    -0.03800
C1438       C  0.87834614  0.16149880  0.51132022    -0.08200
C1439       C  0.85340849  0.14582613  0.52752823     0.05300
C1440       C  0.83030191  0.12912488  0.50928162    -0.03200
Br1441     Br  0.79511850  0.10539973  0.52697615    -0.02900
H1442       H  0.81284440  0.11833399  0.46271991     0.09200
H1443       H  0.89687074  0.17374388  0.52459503     0.07300
Br1444     Br  0.91506301  0.18496761  0.45941075    -0.03400
C1445       C  0.98453304  0.13008876  0.66354929    -0.10000
C1446       C  0.96876935  0.14397336  0.63738968     0.06200
C1447       C  0.98728412  0.15543377  0.61157704    -0.03800
C1448       C  0.02064924  0.15578023  0.61402230    -0.08200
C1449       C  0.03622142  0.14388487  0.64136769     0.05300
C1450       C  0.01762792  0.12974477  0.66573189    -0.03200
Br1451     Br  0.03497204  0.11193596  0.70434000    -0.02900
H1452       H  0.97103825  0.12061954  0.68350929     0.09200
H1453       H  0.03450435  0.16561423  0.59448077     0.07300
Br1454     Br  0.96878984  0.16951175  0.57200231    -0.03400
C1455       C  0.75914224  0.28262188  0.62898460    -0.10000
C1456       C  0.72920309  0.27561538  0.61575658     0.06200
C1457       C  0.72362129  0.24492724  0.60294180    -0.03800
C1458       C  0.74751697  0.22179129  0.60434148    -0.08200
C1459       C  0.77736731  0.22864245  0.61795702     0.05300
C1460       C  0.78308958  0.25957753  0.63030730    -0.03200
Br1461     Br  0.82197584  0.27159504  0.65144468    -0.02900
H1462       H  0.76366706  0.30593791  0.63931602     0.09200
H1463       H  0.74283397  0.19838400  0.59432676     0.07300
Br1464     Br  0.68468517  0.23362088  0.58157883    -0.03400
C1465       C  0.78521622  0.13696179  0.75198203    -0.10000
C1466       C  0.77902447  0.12125788  0.72300147     0.06200
C1467       C  0.74956329  0.10539062  0.71900443    -0.03800
C1468       C  0.72672670  0.10648944  0.74325239    -0.08200
C1469       C  0.73250899  0.12293116  0.77192468     0.05300
C1470       C  0.76239589  0.13815064  0.77624858    -0.03200
Br1471     Br  0.77315489  0.16325291  0.81323320    -0.02900
H1472       H  0.80760537  0.14953636  0.75537388     0.09200
H1473       H  0.70421803  0.09420815  0.73964524     0.07300
Br1474     Br  0.73940404  0.08057745  0.68175772    -0.03400
C1475       C  0.87019288  0.21914834  0.74904100    -0.10000
C1476       C  0.88309567  0.22642731  0.71897820     0.06200
C1477       C  0.89656083  0.25695962  0.71387007    -0.03800
C1478       C  0.89612679  0.27958476  0.73840120    -0.08200
C1479       C  0.88294017  0.27241643  0.76844246     0.05300
C1480       C  0.87003302  0.24152150  0.77367480    -0.03200
Br1481     Br  0.85020389  0.22795940  0.81290317    -0.02900
H1482       H  0.85944496  0.19592578  0.75333627     0.09200
H1483       H  0.90650134  0.30293684  0.73396529     0.07300
Br1484     Br  0.91754050  0.26887911  0.67483906    -0.03400
C1485       C  0.52238572  0.62145304  0.65403534    -0.10000
C1486       C  0.53833195  0.64892411  0.64277502     0.06200
C1487       C  0.51983500  0.67434579  0.63044822    -0.03800
C1488       C  0.48668367  0.67220429  0.63057619    -0.08200
C1489       C  0.47064445  0.64549296  0.64321198     0.05300
C1490       C  0.48900849  0.61949491  0.65440753    -0.03200
Br1491     Br  0.47051015  0.58053302  0.67032706    -0.02900
H1492       H  0.53595253  0.60145964  0.66320721     0.09200
H1493       H  0.47333869  0.69260681  0.62202210     0.07300
Br1494     Br  0.53716416  0.71434453  0.61561823    -0.03400
C1495       C  0.66433592  0.51991532  0.61482761    -0.10000
C1496       C  0.64554850  0.53587284  0.63753051     0.06200
C1497       C  0.62452567  0.51748225  0.65669624    -0.03800
C1498       C  0.62597652  0.48421900  0.65572938    -0.08200
C1499       C  0.64726773  0.46823673  0.63543784     0.05300
C1500       C  0.66504252  0.48655607  0.61323641    -0.03200
Br1501     Br  0.69076304  0.46833160  0.57996754    -0.02900
H1502       H  0.67946820  0.53339284  0.59869441     0.09200
H1503       H  0.61089615  0.47082694  0.67198557     0.07300
Br1504     Br  0.59337437  0.53510583  0.68540669    -0.03400
C1505       C  0.65553765  0.62585680  0.51423905    -0.10000
C1506       C  0.65058978  0.65452758  0.53103651     0.06200
C1507       C  0.64426049  0.68272673  0.51349546    -0.03800
C1508       C  0.64218645  0.68156895  0.48022522    -0.08200
C1509       C  0.64733294  0.65304950  0.46349599     0.05300
C1510       C  0.65418389  0.62496225  0.48077945    -0.03200
Br1511     Br  0.66106827  0.58470319  0.45997510    -0.02900
H1512       H  0.66064910  0.60400905  0.52718361     0.09200
H1513       H  0.63807611  0.70358361  0.46717964     0.07300
Br1514     Br  0.64165272  0.72436934  0.53274470    -0.03400
C1515       C  0.88084711  0.51804174  0.83532313    -0.10000
C1516       C  0.85666954  0.53363992  0.85242693     0.06200
C1517       C  0.83423124  0.51480150  0.86928708    -0.03800
C1518       C  0.83567091  0.48150299  0.86755940    -0.08200
C1519       C  0.85880679  0.46582795  0.84904810     0.05300
C1520       C  0.88217193  0.48468660  0.83341262    -0.03200
Br1521     Br  0.91658028  0.46735093  0.80867759    -0.02900
H1522       H  0.89861170  0.53193863  0.82260296     0.09200
H1523       H  0.81744805  0.46784051  0.87985486     0.07300
Br1524     Br  0.79903651  0.53209889  0.89293211    -0.03400
C1525       C  0.98554540  0.62601218  0.82776314    -0.10000
C1526       C  0.96934813  0.64482872  0.85028480     0.06200
C1527       C  0.98755852  0.66192769  0.87306241    -0.03800
C1528       C  0.02082135  0.66108861  0.87178338    -0.08200
C1529       C  0.03709409  0.64374434  0.84808706     0.05300
C1530       C  0.01881492  0.62539555  0.82626348    -0.03200
Br1531     Br  0.03660937  0.60036941  0.79222929    -0.02900
H1532       H  0.97224758  0.61259476  0.81004944     0.09200
H1533       H  0.03403526  0.67492938  0.88923303     0.07300
Br1534     Br  0.96926528  0.68710403  0.90675704    -0.03400
C1535       C  0.87142068  0.67558937  0.97840665    -0.10000
C1536       C  0.85655148  0.64995758  0.96264863     0.06200
C1537       C  0.84224914  0.62555352  0.98109142    -0.03800
C1538       C  0.84195691  0.62790890  0.01438724    -0.08200
C1539       C  0.85582858  0.65414742  0.03015671     0.05300
C1540       C  0.87119420  0.67800888  0.01165061    -0.03200
Br1541     Br  0.89053265  0.71592142  0.02915316    -0.02900
H1542       H  0.88232032  0.69471135  0.96472730     0.09200
H1543       H  0.83056083  0.60905382  0.02802459     0.07300
Br1544     Br  0.82349519  0.58786386  0.96276011    -0.03400
C1545       C  0.78160997  0.64015671  0.74313551    -0.10000
C1546       C  0.77873257  0.61992669  0.76972628     0.06200
C1547       C  0.75156670  0.59997838  0.77224041    -0.03800
C1548       C  0.72791606  0.60108249  0.74855176    -0.08200
C1549       C  0.73102569  0.62137363  0.72195508     0.05300
C1550       C  0.75820274  0.64115143  0.71955422    -0.03200
Br1551     Br  0.76384979  0.67214422  0.68616701    -0.02900
H1552       H  0.80187743  0.65613313  0.74104779     0.09200
H1553       H  0.70721040  0.58568538  0.75068079     0.07300
Br1554     Br  0.74613484  0.56954073  0.80623111    -0.03400
C1555       C  0.51946353  0.82458094  0.86647777    -0.10000
C1556       C  0.53597658  0.85148209  0.85488798     0.06200
C1557       C  0.51810587  0.87798409  0.84411410    -0.03800
C1558       C  0.48479131  0.87647179  0.84378501    -0.08200
C1559       C  0.46830965  0.84904432  0.85415375     0.05300
C1560       C  0.48619872  0.82297293  0.86608716    -0.03200
Br1561     Br  0.46767476  0.78311774  0.87984684    -0.02900
H1562       H  0.53253284  0.80382356  0.87461228     0.09200
H1563       H  0.47168925  0.89693947  0.83500140     0.07300
Br1564     Br  0.53722850  0.91735617  0.83008833    -0.03400
C1565       C  0.63364511  0.98184545  0.82309382    -0.10000
C1566       C  0.64682157  0.96584492  0.84950897     0.06200
C1567       C  0.65794277  0.98438165  0.87552299    -0.03800
C1568       C  0.65760848  0.01786270  0.87361113    -0.08200
C1569       C  0.64594113  0.03381700  0.84640342     0.05300
C1570       C  0.63306467  0.01521024  0.82125660    -0.03200
Br1571     Br  0.61657124  0.03296345  0.78225455    -0.02900
H1572       H  0.62484681  0.96833414  0.80284665     0.09200
H1573       H  0.66692690  0.03153952  0.89352914     0.07300
Br1574     Br  0.67316971  0.96596129  0.91472703    -0.03400
C1575       C  0.62578692  0.84580063  0.98107916    -0.10000
C1576       C  0.65254121  0.85763473  0.96456513     0.06200
C1577       C  0.67762384  0.87161577  0.98247719    -0.03800
C1578       C  0.67587985  0.87230136  0.01574618    -0.08200
C1579       C  0.64995606  0.85892564  0.03224402     0.05300
C1580       C  0.62422753  0.84633626  0.01444932    -0.03200
Br1581     Br  0.58595888  0.83003645  0.03376715    -0.02900
H1582       H  0.60596946  0.83551778  0.96798734     0.09200
H1583       H  0.69593918  0.88207157  0.02887611     0.07300
Br1584     Br  0.71646525  0.88804098  0.96429126    -0.03400
C1585       C  0.64576600  0.74553447  0.77809392    -0.10000
C1586       C  0.62296343  0.76986512  0.77659288     0.06200
C1587       C  0.60069543  0.77010316  0.75141518    -0.03800
C1588       C  0.60274795  0.74722000  0.72717202    -0.08200
C1589       C  0.62623516  0.72348303  0.72818653     0.05300
C1590       C  0.64752807  0.72238363  0.75421764    -0.03200
Br1591     Br  0.68105002  0.69139409  0.75727025    -0.02900
H1592       H  0.66302452  0.74519422  0.79733258     0.09200
H1593       H  0.58573691  0.74767869  0.70772439     0.07300
Br1594     Br  0.56596467  0.79977196  0.75026712    -0.03400
C1595       C  0.72057227  0.74226232  0.86971064    -0.10000
C1596       C  0.72974316  0.77390818  0.87627510     0.06200
C1597       C  0.76217413  0.78031614  0.88281400    -0.03800
C1598       C  0.78449932  0.75564283  0.88129606    -0.08200
C1599       C  0.77549888  0.72406869  0.87385147     0.05300
C1600       C  0.74273575  0.71748152  0.86859096    -0.03200
Br1601     Br  0.72547395  0.67575764  0.85949497    -0.02900
H1602       H  0.69584714  0.73665350  0.86476745     0.09200
H1603       H  0.80921199  0.76139782  0.88608310     0.07300
Br1604     Br  0.77791105  0.82164139  0.89536996    -0.03400
C1605       C  0.85354348  0.88225624  0.48222796    -0.10000
C1606       C  0.85881608  0.85365052  0.46546703     0.06200
C1607       C  0.86602832  0.82564522  0.48302891    -0.03800
C1608       C  0.86786893  0.82674466  0.51625707    -0.08200
C1609       C  0.86155173  0.85493369  0.53299352     0.05300
C1610       C  0.85474887  0.88308155  0.51571612    -0.03200
Br1611     Br  0.84757092  0.92326180  0.53657164    -0.02900
H1612       H  0.84807760  0.90400102  0.46925546     0.09200
H1613       H  0.87229048  0.80475836  0.52926643     0.07300
Br1614     Br  0.86971615  0.78400530  0.46409566    -0.03400
C1615       C  0.98732599  0.83536511  0.62825358    -0.10000
C1616       C  0.97164444  0.85707919  0.64846035     0.06200
C1617       C  0.99067841  0.87804697  0.66707118    -0.03800
C1618       C  0.02397886  0.87621692  0.66560386    -0.08200
C1619       C  0.03956317  0.85354147  0.64638157     0.05300
C1620       C  0.02051420  0.83308154  0.62724051    -0.03200
Br1621     Br  0.03704230  0.80038844  0.59960682    -0.02900
H1622       H  0.97364376  0.81904157  0.61351606     0.09200
H1623       H  0.03777212  0.89222690  0.68058568     0.07300
Br1624     Br  0.97385371  0.90885815  0.69643331    -0.03400
C1625       C  0.83886334  0.98302291  0.61919450    -0.10000
C1626       C  0.85934774  0.96761413  0.64083118     0.06200
C1627       C  0.88090934  0.98647092  0.65873360    -0.03800
C1628       C  0.87974370  0.01967931  0.65649345    -0.08200
C1629       C  0.85718649  0.03518940  0.63711143     0.05300
C1630       C  0.83745492  0.01628544  0.61718098    -0.03200
Br1631     Br  0.80683104  0.03323277  0.58755929    -0.02900
H1632       H  0.82256445  0.96918397  0.60458141     0.09200
H1633       H  0.89592088  0.03343916  0.67130431     0.07300
Br1634     Br  0.91219409  0.96948114  0.68754754    -0.03400
C1635       C  0.75699673  0.77495046  0.64623357    -0.10000
C1636       C  0.77944511  0.77569823  0.62142863     0.06200
C1637       C  0.77814570  0.75214869  0.59739273    -0.03800
C1638       C  0.75458316  0.72829674  0.59860557    -0.08200
C1639       C  0.73200582  0.72780117  0.62336962     0.05300
C1640       C  0.73359676  0.75119950  0.64749323    -0.03200
Br1641     Br  0.70583390  0.75049755  0.68394398    -0.02900
H1642       H  0.75809459  0.79256634  0.66515348     0.09200
H1643       H  0.75344266  0.71054671  0.57983424     0.07300
Br1644     Br  0.80647716  0.75293778  0.56141810    -0.03400
C1645       C  0.89806574  0.74729835  0.71907951    -0.10000
C1646       C  0.88215900  0.77612913  0.72509241     0.06200
C1647       C  0.86729079  0.78064191  0.75490689    -0.03800
C1648       C  0.86788737  0.75631419  0.77760083    -0.08200
C1649       C  0.88318898  0.72711798  0.77158371     0.05300
C1650       C  0.89909544  0.72299838  0.74209033    -0.03200
Br1651     Br  0.92394368  0.68586259  0.73207892    -0.02900
H1652       H  0.91008349  0.74379168  0.69644011     0.09200
H1653       H  0.85537997  0.76009782  0.79992751     0.07300
Br1654     Br  0.84349763  0.81830330  0.76554707    -0.03400
C1655       C  0.74765580  0.86460483  0.71567273    -0.10000
C1656       C  0.77660676  0.87987014  0.72301813     0.06200
C1657       C  0.77984219  0.89521144  0.75276437    -0.03800
C1658       C  0.75505792  0.89364173  0.77507114    -0.08200
C1659       C  0.72633702  0.87754631  0.76821987     0.05300
C1660       C  0.72259847  0.86341144  0.73772685    -0.03200
Br1661     Br  0.68490153  0.84057922  0.72487197    -0.02900
H1662       H  0.74474135  0.85279405  0.69280802     0.09200
H1663       H  0.75821139  0.90542976  0.79790555     0.07300
Br1664     Br  0.81656045  0.92056236  0.76328504    -0.03400
loop_ 
_geom_bond_atom_site_label_1 
_geom_bond_atom_site_label_2 
_geom_bond_distance 
_geom_bond_site_symmetry_2 
_ccdc_geom_bond_type 
Fe1          O17   2.050       .  S
Fe1           O7   2.065       .  S
Fe1          O14   2.064       .  S
Fe1           O6   2.051       .  S
Fe1          O12   1.969       .  S
Fe2           O5   2.073       .  S
Fe2           O9   2.066       .  S
Fe2          O13   2.070       .  S
Fe2          O18   2.063       .  S
Fe2          O12   1.971       .  S
Fe3          O21   2.071       .  S
Fe3           O8   2.056       .  S
Fe3          O15   2.061       .  S
Fe3           O4   2.080       .  S
Fe3          O12   1.969       .  S
O4           C11   1.271       .  A
O5           C19   1.269       .  A
O6           C11   1.266       .  A
O7           C10   1.268       .  A
O8           C20   1.268       .  A
O9           C22   1.268       .  A
C10          O15   1.269       .  A
C10        C1609   1.476       .  S
C11        C1636   1.475       .  S
O13          C16   1.269       .  A
O14          C16   1.267       .  A
C16        C1656   1.482       .  S
O17          C22   1.268       .  A
O18          C20   1.268       .  A
C19          O21   1.272       .  A
C19        C1616   1.499       .  S
C20        C1646   1.474       .  S
C22        C1626   1.484       .  S
Fe23         O39   2.061       .  S
Fe23         O29   2.069       .  S
Fe23         O36   2.062       .  S
Fe23         O28   2.056       .  S
Fe23         O34   1.981       .  S
Fe24         O27   2.069       .  S
Fe24         O31   2.059       .  S
Fe24         O35   2.061       .  S
Fe24         O40   2.060       .  S
Fe24         O34   1.978       .  S
Fe25         O43   2.069       .  S
Fe25         O30   2.072       .  S
Fe25         O37   2.064       .  S
Fe25         O26   2.062       .  S
Fe25         O34   1.977       .  S
O26          C33   1.268       .  A
O27          C41   1.269       .  A
O28          C33   1.267       .  A
O29          C32   1.270       .  A
O30          C42   1.268       .  A
O31          C44   1.266       .  A
C32          O37   1.268       .  A
C32        C1556   1.490       .  S
C33        C1586   1.469       .  S
O35          C38   1.266       .  A
O36          C38   1.269       .  A
C38        C1596   1.487       .  S
O39          C44   1.269       .  A
O40          C42   1.267       .  A
C41          O43   1.272       .  A
C41        C1566   1.492       .  S
C42        C1659   1.489       .  S
C44        C1576   1.487       .  S
Fe45         O61   2.061       .  S
Fe45         O51   2.075       .  S
Fe45         O58   2.075       .  S
Fe45         O50   2.054       .  S
Fe45         O56   1.961       .  S
Fe46         O49   2.050       .  S
Fe46         O53   2.074       .  S
Fe46         O57   2.042       .  S
Fe46         O62   2.081       .  S
Fe46         O56   1.962       .  S
Fe47         O65   2.068       .  S
Fe47         O52   2.047       .  S
Fe47         O59   2.055       .  S
Fe47         O48   2.073       .  S
Fe47         O56   1.963       .  S
O48          C55   1.268       .  A
O49          C63   1.267       .  A
O50          C55   1.268       .  A
O51          C54   1.273       .  A
O52          C64   1.265       .  A
O53          C66   1.270       .  A
C54          O59   1.267       .  A
C54        C1516   1.486       .  S
C55        C1546   1.482       .  S
O57          C60   1.266       .  A
O58          C60   1.269       .  A
C60        C1649   1.483       .  S
O61          C66   1.271       .  A
O62          C64   1.273       .  A
C63          O65   1.268       .  A
C63        C1536   1.480       .  S
C64        C1599   1.491       .  S
C66        C1526   1.490       .  S
Fe67         O83   2.069       .  S
Fe67         O73   2.065       .  S
Fe67         O80   2.062       .  S
Fe67         O72   2.071       .  S
Fe67         O78   1.983       .  S
Fe68         O71   2.074       .  S
Fe68         O75   2.044       .  S
Fe68         O79   2.069       .  S
Fe68         O84   2.046       .  S
Fe68         O78   1.983       .  S
Fe69         O87   2.061       .  S
Fe69         O74   2.065       .  S
Fe69         O81   2.062       .  S
Fe69         O70   2.061       .  S
Fe69         O78   1.972       .  S
O70          C77   1.268       .  A
O71          C85   1.271       .  A
O72          C77   1.269       .  A
O73          C76   1.268       .  A
O74          C86   1.267       .  A
O75          C88   1.263       .  A
C76          O81   1.268       .  A
C76        C1506   1.484       .  S
C77        C1639   1.475       .  S
O79          C82   1.268       .  A
O80          C82   1.268       .  A
C82        C1549   1.479       .  S
O83          C88   1.270       .  A
O84          C86   1.263       .  A
C85          O87   1.268       .  A
C85        C1486   1.491       .  S
C86        C1589   1.468       .  S
C88        C1496   1.487       .  S
Fe89        O105   2.050       .  S
Fe89         O95   2.051       .  S
Fe89        O102   2.059       .  S
Fe89         O94   2.051       .  S
Fe89        O100   1.971       .  S
Fe90         O93   2.055       .  S
Fe90         O97   2.061       .  S
Fe90        O101   2.060       .  S
Fe90        O106   2.059       .  S
Fe90        O100   1.976       .  S
Fe91        O109   2.055       .  S
Fe91         O96   2.063       .  S
Fe91        O103   2.074       .  S
Fe91         O92   2.058       .  S
Fe91        O100   1.980       .  S
O92          C99   1.267       .  A
O93         C107   1.265       .  A
O94          C99   1.267       .  A
O95          C98   1.267       .  A
O96         C108   1.267       .  A
O97         C110   1.267       .  A
C98         O103   1.268       .  A
C98        C1446   1.489       .  S
C99        C1476   1.477       .  S
O101        C104   1.266       .  A
O102        C104   1.266       .  A
C104       C1466   1.480       .  S
O105        C110   1.268       .  A
O106        C108   1.268       .  A
C107        O109   1.268       .  A
C107       C1439   1.486       .  S
C108       C1459   1.480       .  S
C110       C1629   1.486       .  S
Fe111       O127   2.071       .  S
Fe111       O117   2.072       .  S
Fe111       O124   2.057       .  S
Fe111       O116   2.067       .  S
Fe111       O122   1.980       .  S
Fe112       O115   2.086       .  S
Fe112       O119   2.060       .  S
Fe112       O123   2.071       .  S
Fe112       O128   2.058       .  S
Fe112       O122   1.976       .  S
Fe113       O131   2.051       .  S
Fe113       O118   2.069       .  S
Fe113       O125   2.060       .  S
Fe113       O114   2.045       .  S
Fe113       O122   1.972       .  S
O114        C121   1.263       .  A
O115        C129   1.273       .  A
O116        C121   1.269       .  A
O117        C120   1.270       .  A
O118        C130   1.268       .  A
O119        C132   1.271       .  A
C120        O125   1.266       .  A
C120       C1396   1.494       .  S
C121       C1479   1.481       .  S
O123        C126   1.269       .  A
O124        C126   1.265       .  A
C126       C1416   1.479       .  S
O127        C132   1.270       .  A
O128        C130   1.267       .  A
C129        O131   1.264       .  A
C129       C1406   1.495       .  S
C130       C1429   1.477       .  S
C132       C1519   1.492       .  S
Fe133       O149   2.067       .  S
Fe133       O139   2.083       .  S
Fe133       O146   2.075       .  S
Fe133       O138   2.058       .  S
Fe133       O144   1.966       .  S
Fe134       O137   2.056       .  S
Fe134       O141   2.075       .  S
Fe134       O145   2.050       .  S
Fe134       O150   2.075       .  S
Fe134       O144   1.971       .  S
Fe135       O153   2.057       .  S
Fe135       O140   2.051       .  S
Fe135       O147   2.054       .  S
Fe135       O136   2.056       .  S
Fe135       O144   1.966       .  S
O136        C143   1.265       .  A
O137        C151   1.265       .  A
O138        C143   1.266       .  A
O139        C142   1.275       .  A
O140        C152   1.268       .  A
O141        C154   1.272       .  A
C142        O147   1.268       .  A
C142       C1366   1.488       .  S
C143       C1386   1.476       .  S
O145        C148   1.265       .  A
O146        C148   1.272       .  A
C148       C1469   1.483       .  S
O149        C154   1.269       .  A
O150        C152   1.270       .  A
C151        O153   1.268       .  A
C151       C1376   1.488       .  S
C152       C1426   1.479       .  S
C154       C1569   1.492       .  S
Fe155       O171   2.052       .  S
Fe155       O161   2.063       .  S
Fe155       O168   2.069       .  S
Fe155       O160   2.055       .  S
Fe155       O166   1.972       .  S
Fe156       O159   2.062       .  S
Fe156       O163   2.064       .  S
Fe156       O167   2.055       .  S
Fe156       O172   2.064       .  S
Fe156       O166   1.976       .  S
Fe157       O175   2.057       .  S
Fe157       O162   2.054       .  S
Fe157       O169   2.055       .  S
Fe157       O158   2.058       .  S
Fe157       O166   1.970       .  S
O158        C165   1.269       .  A
O159        C173   1.270       .  A
O160        C165   1.265       .  A
O161        C164   1.269       .  A
O162        C174   1.265       .  A
O163        C176   1.267       .  A
C164        O169   1.266       .  A
C164       C1349   1.483       .  S
C165       C1389   1.485       .  S
O167        C170   1.267       .  A
O168        C170   1.269       .  A
C170       C1419   1.479       .  S
O171        C176   1.268       .  A
O172        C174   1.268       .  A
C173        O175   1.266       .  A
C173       C1356   1.485       .  S
C174       C1456   1.477       .  S
C176       C1499   1.487       .  S
Fe177       O193   2.071       .  S
Fe177       O183   2.059       .  S
Fe177       O190   2.049       .  S
Fe177       O182   2.075       .  S
Fe177       O188   1.970       .  S
Fe178       O181   2.084       .  S
Fe178       O185   2.067       .  S
Fe178       O189   2.074       .  S
Fe178       O194   2.055       .  S
Fe178       O188   1.967       .  S
Fe179       O197   2.055       .  S
Fe179       O184   2.062       .  S
Fe179       O191   2.064       .  S
Fe179       O180   2.053       .  S
Fe179       O188   1.966       .  S
O180        C187   1.267       .  A
O181        C195   1.274       .  A
O182        C187   1.270       .  A
O183        C186   1.269       .  A
O184        C196   1.265       .  A
O185        C198   1.271       .  A
C186        O191   1.267       .  A
C186       C1296   1.484       .  S
C187       C1316   1.480       .  S
O189        C192   1.271       .  A
O190        C192   1.265       .  A
C192       C1326   1.481       .  S
O193        C198   1.269       .  A
O194        C196   1.268       .  A
C195        O197   1.267       .  A
C195       C1306   1.490       .  S
C196       C1339   1.481       .  S
C198       C1619   1.497       .  S
Fe199       O215   2.059       .  S
Fe199       O205   2.061       .  S
Fe199       O212   2.057       .  S
Fe199       O204   2.063       .  S
Fe199       O210   1.972       .  S
Fe200       O203   2.080       .  S
Fe200       O207   2.065       .  S
Fe200       O211   2.076       .  S
Fe200       O216   2.061       .  S
Fe200       O210   1.976       .  S
Fe201       O219   2.041       .  S
Fe201       O206   2.052       .  S
Fe201       O213   2.053       .  S
Fe201       O202   2.049       .  S
Fe201       O210   1.970       .  S
O202        C209   1.265       .  A
O203        C217   1.272       .  A
O204        C209   1.268       .  A
O205        C208   1.267       .  A
O206        C218   1.263       .  A
O207        C220   1.270       .  A
C208        O213   1.267       .  A
C208       C1266   1.483       .  S
C209       C1286   1.472       .  S
O211        C214   1.272       .  A
O212        C214   1.267       .  A
C214       C1276   1.485       .  S
O215        C220   1.266       .  A
O216        C218   1.268       .  A
C217        O219   1.268       .  A
C217       C1256   1.485       .  S
C218       C1336   1.488       .  S
C220       C1559   1.489       .  S
Fe221       O237   2.060       .  S
Fe221       O227   2.051       .  S
Fe221       O234   2.053       .  S
Fe221       O226   2.054       .  S
Fe221       O232   1.975       .  S
Fe222       O225   2.061       .  S
Fe222       O229   2.067       .  S
Fe222       O233   2.059       .  S
Fe222       O238   2.058       .  S
Fe222       O232   1.975       .  S
Fe223       O241   2.058       .  S
Fe223       O228   2.062       .  S
Fe223       O235   2.055       .  S
Fe223       O224   2.055       .  S
Fe223       O232   1.981       .  S
O224        C231   1.266       .  A
O225        C239   1.268       .  A
O226        C231   1.266       .  A
O227        C230   1.268       .  A
O228        C240   1.266       .  A
O229        C242   1.267       .  A
C230        O235   1.266       .  A
C230       C1236   1.476       .  S
C231       C1289   1.468       .  S
O233        C236   1.268       .  A
O234        C236   1.265       .  A
C236       C1329   1.476       .  S
O237        C242   1.268       .  A
O238        C240   1.268       .  A
C239        O241   1.269       .  A
C239       C1226   1.484       .  S
C240       C1246   1.485       .  S
C242       C1529   1.494       .  S
Fe243       O259   2.055       .  S
Fe243       O249   2.058       .  S
Fe243       O256   2.059       .  S
Fe243       O248   2.056       .  S
Fe243       O254   1.974       .  S
Fe244       O247   2.073       .  S
Fe244       O251   2.072       .  S
Fe244       O255   2.070       .  S
Fe244       O260   2.057       .  S
Fe244       O254   1.982       .  S
Fe245       O263   2.059       .  S
Fe245       O250   2.069       .  S
Fe245       O257   2.070       .  S
Fe245       O246   2.063       .  S
Fe245       O254   1.981       .  S
O246        C253   1.267       .  A
O247        C261   1.272       .  A
O248        C253   1.266       .  A
O249        C252   1.268       .  A
O250        C262   1.268       .  A
O251        C264   1.269       .  A
C252        O257   1.270       .  A
C252       C1216   1.479       .  S
C253       C1319   1.475       .  S
O255        C258   1.269       .  A
O256        C258   1.267       .  A
C258       C1279   1.481       .  S
O259        C264   1.269       .  A
O260        C262   1.267       .  A
C261        O263   1.267       .  A
C261       C1209   1.489       .  S
C262       C1249   1.483       .  S
C264       C1489   1.491       .  S
Fe265       O281   2.060       .  S
Fe265       O271   2.079       .  S
Fe265       O278   2.070       .  S
Fe265       O270   2.064       .  S
Fe265       O276   1.957       .  S
Fe266       O269   2.053       .  S
Fe266       O273   2.080       .  S
Fe266       O277   2.051       .  S
Fe266       O282   2.086       .  S
Fe266       O276   1.963       .  S
Fe267       O285   2.063       .  S
Fe267       O272   2.058       .  S
Fe267       O279   2.060       .  S
Fe267       O268   2.068       .  S
Fe267       O276   1.954       .  S
O268        C275   1.267       .  A
O269        C283   1.267       .  A
O270        C275   1.270       .  A
O271        C274   1.271       .  A
O272        C284   1.269       .  A
O273        C286   1.272       .  A
C274        O279   1.270       .  A
C274       C1309   1.489       .  S
C275       C1186   1.493       .  S
O277        C280   1.268       .  A
O278        C280   1.268       .  A
C280       C1176   1.483       .  S
O281        C286   1.269       .  A
O282        C284   1.272       .  A
C283        O285   1.267       .  A
C283       C1169   1.486       .  S
C284       C1196   1.495       .  S
C286       C1449   1.486       .  S
Fe287       O303   2.047       .  S
Fe287       O293   2.076       .  S
Fe287       O300   2.080       .  S
Fe287       O292   2.048       .  S
Fe287       O298   1.965       .  S
Fe288       O291   2.045       .  S
Fe288       O295   2.075       .  S
Fe288       O299   2.042       .  S
Fe288       O304   2.082       .  S
Fe288       O298   1.965       .  S
Fe289       O307   2.076       .  S
Fe289       O294   2.054       .  S
Fe289       O301   2.057       .  S
Fe289       O290   2.077       .  S
Fe289       O298   1.964       .  S
O290        C297   1.270       .  A
O291        C305   1.266       .  A
O292        C297   1.266       .  A
O293        C296   1.271       .  A
O294        C306   1.267       .  A
O295        C308   1.270       .  A
C296        O301   1.269       .  A
C296       C1206   1.483       .  S
C297       C1159   1.485       .  S
O299        C302   1.267       .  A
O300        C302   1.271       .  A
C302       C1146   1.479       .  S
O303        C308   1.265       .  A
O304        C306   1.269       .  A
C305        O307   1.272       .  A
C305       C1136   1.473       .  S
C306       C1199   1.495       .  S
C308       C1346   1.476       .  S
Fe309       O325   2.049       .  S
Fe309       O315   2.065       .  S
Fe309       O322   2.058       .  S
Fe309       O314   2.053       .  S
Fe309       O320   1.972       .  S
Fe310       O313   2.070       .  S
Fe310       O317   2.070       .  S
Fe310       O321   2.069       .  S
Fe310       O326   2.055       .  S
Fe310       O320   1.982       .  S
Fe311       O329   2.059       .  S
Fe311       O316   2.061       .  S
Fe311       O323   2.065       .  S
Fe311       O312   2.063       .  S
Fe311       O320   1.974       .  S
O312        C319   1.268       .  A
O313        C327   1.269       .  A
O314        C319   1.266       .  A
O315        C318   1.267       .  A
O316        C328   1.267       .  A
O317        C330   1.270       .  A
C318        O323   1.270       .  A
C318       C1116   1.489       .  S
C319       C1129   1.474       .  S
O321        C324   1.269       .  A
O322        C324   1.264       .  A
C324       C1189   1.495       .  S
O325        C330   1.265       .  A
O326        C328   1.266       .  A
C327        O329   1.270       .  A
C327       C1369   1.492       .  S
C328       C1149   1.476       .  S
C330       C1259   1.486       .  S
Fe331       O347   2.078       .  S
Fe331       O337   2.061       .  S
Fe331       O344   2.056       .  S
Fe331       O336   2.068       .  S
Fe331       O342   1.982       .  S
Fe332       O335   2.065       .  S
Fe332       O339   2.060       .  S
Fe332       O343   2.055       .  S
Fe332       O348   2.062       .  S
Fe332       O342   1.975       .  S
Fe333       O351   2.069       .  S
Fe333       O338   2.057       .  S
Fe333       O345   2.059       .  S
Fe333       O334   2.062       .  S
Fe333       O342   1.977       .  S
O334        C341   1.267       .  A
O335        C349   1.268       .  A
O336        C341   1.269       .  A
O337        C340   1.269       .  A
O338        C350   1.267       .  A
O339        C352   1.270       .  A
C340        O345   1.267       .  A
C340       C1229   1.484       .  S
C341       C1156   1.484       .  S
O343        C346   1.266       .  A
O344        C346   1.265       .  A
C346       C1179   1.475       .  S
O347        C352   1.271       .  A
O348        C350   1.266       .  A
C349        O351   1.271       .  A
C349       C1106   1.493       .  S
C350       C1126   1.477       .  S
C352       C1399   1.496       .  S
Fe353       O369   2.078       .  S
Fe353       O359   2.074       .  S
Fe353       O366   2.069       .  S
Fe353       O358   2.077       .  S
Fe353       O364   1.980       .  S
Fe354       O357   2.052       .  S
Fe354       O361   2.052       .  S
Fe354       O365   2.052       .  S
Fe354       O370   2.058       .  S
Fe354       O364   1.973       .  S
Fe355       O373   2.071       .  S
Fe355       O360   2.051       .  S
Fe355       O367   2.050       .  S
Fe355       O356   2.070       .  S
Fe355       O364   1.977       .  S
O356        C363   1.271       .  A
O357        C371   1.266       .  A
O358        C363   1.270       .  A
O359        C362   1.271       .  A
O360        C372   1.264       .  A
O361        C374   1.266       .  A
C362        O367   1.263       .  A
C362       C1066   1.492       .  S
C363       C1086   1.496       .  S
O365        C368   1.265       .  A
O366        C368   1.271       .  A
C368       C1076   1.484       .  S
O369        C374   1.271       .  A
O370        C372   1.266       .  A
C371        O373   1.271       .  A
C371       C1056   1.482       .  S
C372       C1096   1.477       .  S
C374       C1606   1.483       .  S
Fe375       O391   2.068       .  S
Fe375       O381   2.059       .  S
Fe375       O388   2.054       .  S
Fe375       O380   2.067       .  S
Fe375       O386   1.973       .  S
Fe376       O379   2.060       .  S
Fe376       O383   2.048       .  S
Fe376       O387   2.064       .  S
Fe376       O392   2.044       .  S
Fe376       O386   1.976       .  S
Fe377       O395   2.064       .  S
Fe377       O382   2.067       .  S
Fe377       O389   2.070       .  S
Fe377       O378   2.062       .  S
Fe377       O386   1.975       .  S
O378        C385   1.269       .  A
O379        C393   1.266       .  A
O380        C385   1.268       .  A
O381        C384   1.267       .  A
O382        C394   1.267       .  A
O383        C396   1.264       .  A
C384        O389   1.270       .  A
C384       C1016   1.486       .  S
C385       C1036   1.486       .  S
O387        C390   1.267       .  A
O388        C390   1.267       .  A
C390       C1046   1.478       .  S
O391        C396   1.271       .  A
O392        C394   1.266       .  A
C393        O395   1.271       .  A
C393       C1026   1.484       .  S
C394       C1099   1.483       .  S
C396       C1539   1.483       .  S
Fe397       O413   2.053       .  S
Fe397       O403   2.055       .  S
Fe397       O410   2.062       .  S
Fe397       O402   2.051       .  S
Fe397       O408   1.973       .  S
Fe398       O401   2.056       .  S
Fe398       O405   2.066       .  S
Fe398       O409   2.055       .  S
Fe398       O414   2.060       .  S
Fe398       O408   1.969       .  S
Fe399       O417   2.086       .  S
Fe399       O404   2.054       .  S
Fe399       O411   2.061       .  S
Fe399       O400   2.091       .  S
Fe399       O408   1.975       .  S
O400        C407   1.274       .  A
O401        C415   1.266       .  A
O402        C407   1.265       .  A
O403        C406   1.265       .  A
O404        C416   1.265       .  A
O405        C418   1.269       .  A
C406        O411   1.270       .  A
C406        C996   1.487       .  S
C407       C1089   1.492       .  S
O409        C412   1.265       .  A
O410        C412   1.266       .  A
C412       C1049   1.478       .  S
O413        C418   1.269       .  A
O414        C416   1.270       .  A
C415        O417   1.273       .  A
C415        C986   1.495       .  S
C416       C1006   1.487       .  S
C418       C1579   1.482       .  S
Fe419       O435   2.065       .  S
Fe419       O425   2.060       .  S
Fe419       O432   2.056       .  S
Fe419       O424   2.065       .  S
Fe419       O430   1.973       .  S
Fe420       O423   2.065       .  S
Fe420       O427   2.061       .  S
Fe420       O431   2.065       .  S
Fe420       O436   2.056       .  S
Fe420       O430   1.977       .  S
Fe421       O439   2.067       .  S
Fe421       O426   2.062       .  S
Fe421       O433   2.078       .  S
Fe421       O422   2.068       .  S
Fe421       O430   1.975       .  S
O422        C429   1.267       .  A
O423        C437   1.269       .  A
O424        C429   1.266       .  A
O425        C428   1.271       .  A
O426        C438   1.267       .  A
O427        C440   1.269       .  A
C428        O433   1.272       .  A
C428        C976   1.489       .  S
C429       C1039   1.484       .  S
O431        C434   1.268       .  A
O432        C434   1.269       .  A
C434       C1079   1.480       .  S
O435        C440   1.268       .  A
O436        C438   1.268       .  A
C437        O439   1.270       .  A
C437        C966   1.482       .  S
C438       C1009   1.488       .  S
C440       C1509   1.477       .  S
Fe441       O457   2.057       .  S
Fe441       O447   2.063       .  S
Fe441       O454   2.069       .  S
Fe441       O446   2.048       .  S
Fe441       O452   1.961       .  S
Fe442       O445   2.049       .  S
Fe442       O449   2.070       .  S
Fe442       O453   2.054       .  S
Fe442       O458   2.073       .  S
Fe442       O452   1.963       .  S
Fe443       O461   2.069       .  S
Fe443       O448   2.051       .  S
Fe443       O455   2.058       .  S
Fe443       O444   2.071       .  S
Fe443       O452   1.969       .  S
O444        C451   1.268       .  A
O445        C459   1.265       .  A
O446        C451   1.264       .  A
O447        C450   1.269       .  A
O448        C460   1.268       .  A
O449        C462   1.268       .  A
C450        O455   1.271       .  A
C450        C999   1.483       .  S
C451        C949   1.479       .  S
O453        C456   1.268       .  A
O454        C456   1.269       .  A
C456        C956   1.479       .  S
O457        C462   1.268       .  A
O458        C460   1.269       .  A
C459        O461   1.269       .  A
C459       C1379   1.478       .  S
C460        C939   1.486       .  S
C462        C926   1.486       .  S
Fe463       O479   2.066       .  S
Fe463       O469   2.067       .  S
Fe463       O476   2.064       .  S
Fe463       O468   2.060       .  S
Fe463       O474   1.975       .  S
Fe464       O467   2.067       .  S
Fe464       O471   2.069       .  S
Fe464       O475   2.066       .  S
Fe464       O480   2.064       .  S
Fe464       O474   1.975       .  S
Fe465       O483   2.060       .  S
Fe465       O470   2.064       .  S
Fe465       O477   2.055       .  S
Fe465       O466   2.058       .  S
Fe465       O474   1.981       .  S
O466        C473   1.266       .  A
O467        C481   1.271       .  A
O468        C473   1.267       .  A
O469        C472   1.269       .  A
O470        C482   1.268       .  A
O471        C484   1.270       .  A
C472        O477   1.269       .  A
C472       C1359   1.484       .  S
C473        C909   1.472       .  S
O475        C478   1.268       .  A
O476        C478   1.269       .  A
C478        C916   1.479       .  S
O479        C484   1.267       .  A
O480        C482   1.268       .  A
C481        O483   1.266       .  A
C481        C896   1.489       .  S
C482        C959   1.480       .  S
C484        C979   1.495       .  S
Fe485       O501   2.066       .  S
Fe485       O491   2.045       .  S
Fe485       O498   2.040       .  S
Fe485       O490   2.074       .  S
Fe485       O496   1.972       .  S
Fe486       O489   2.081       .  S
Fe486       O493   2.063       .  S
Fe486       O497   2.077       .  S
Fe486       O502   2.061       .  S
Fe486       O496   1.973       .  S
Fe487       O505   2.047       .  S
Fe487       O492   2.071       .  S
Fe487       O499   2.064       .  S
Fe487       O488   2.042       .  S
Fe487       O496   1.970       .  S
O488        C495   1.264       .  A
O489        C503   1.272       .  A
O490        C495   1.269       .  A
O491        C494   1.267       .  A
O492        C504   1.270       .  A
O493        C506   1.271       .  A
C494        O499   1.268       .  A
C494       C1436   1.482       .  S
C495        C906   1.476       .  S
O497        C500   1.269       .  A
O498        C500   1.265       .  A
C500        C946   1.478       .  S
O501        C506   1.269       .  A
O502        C504   1.268       .  A
C503        O505   1.264       .  A
C503        C876   1.485       .  S
C504        C886   1.482       .  S
C506       C1069   1.487       .  S
Fe507       O523   2.061       .  S
Fe507       O513   2.081       .  S
Fe507       O520   2.076       .  S
Fe507       O512   2.059       .  S
Fe507       O518   1.962       .  S
Fe508       O511   2.054       .  S
Fe508       O515   2.084       .  S
Fe508       O519   2.046       .  S
Fe508       O524   2.084       .  S
Fe508       O518   1.963       .  S
Fe509       O527   2.077       .  S
Fe509       O514   2.046       .  S
Fe509       O521   2.052       .  S
Fe509       O510   2.076       .  S
Fe509       O518   1.962       .  S
O510        C517   1.270       .  A
O511        C525   1.269       .  A
O512        C517   1.269       .  A
O513        C516   1.271       .  A
O514        C526   1.264       .  A
O515        C528   1.272       .  A
C516        O521   1.267       .  A
C516        C866   1.483       .  S
C517        C889   1.485       .  S
O519        C522   1.266       .  A
O520        C522   1.269       .  A
C522        C936   1.488       .  S
O523        C528   1.271       .  A
O524        C526   1.271       .  A
C525        O527   1.272       .  A
C525       C1019   1.482       .  S
C526        C919   1.481       .  S
C528       C1409   1.492       .  S
Fe529       O545   2.067       .  S
Fe529       O535   2.061       .  S
Fe529       O542   2.057       .  S
Fe529       O534   2.070       .  S
Fe529       O540   1.977       .  S
Fe530       O533   2.048       .  S
Fe530       O537   2.061       .  S
Fe530       O541   2.050       .  S
Fe530       O546   2.064       .  S
Fe530       O540   1.978       .  S
Fe531       O549   2.075       .  S
Fe531       O536   2.053       .  S
Fe531       O543   2.054       .  S
Fe531       O532   2.076       .  S
Fe531       O540   1.975       .  S
O532        C539   1.270       .  A
O533        C547   1.264       .  A
O534        C539   1.268       .  A
O535        C538   1.267       .  A
O536        C548   1.265       .  A
O537        C550   1.267       .  A
C538        O543   1.269       .  A
C538       C1166   1.484       .  S
C539        C836   1.495       .  S
O541        C544   1.265       .  A
O542        C544   1.268       .  A
C544        C856   1.472       .  S
O545        C550   1.271       .  A
O546        C548   1.269       .  A
C547        O549   1.270       .  A
C547        C826   1.484       .  S
C548        C849   1.489       .  S
C550        C879   1.486       .  S
Fe551       O567   2.074       .  S
Fe551       O557   2.061       .  S
Fe551       O564   2.059       .  S
Fe551       O556   2.071       .  S
Fe551       O562   1.972       .  S
Fe552       O555   2.074       .  S
Fe552       O559   2.065       .  S
Fe552       O563   2.070       .  S
Fe552       O568   2.052       .  S
Fe552       O562   1.979       .  S
Fe553       O571   2.057       .  S
Fe553       O558   2.059       .  S
Fe553       O565   2.064       .  S
Fe553       O554   2.059       .  S
Fe553       O562   1.982       .  S
O554        C561   1.265       .  A
O555        C569   1.271       .  A
O556        C561   1.268       .  A
O557        C560   1.268       .  A
O558        C570   1.267       .  A
O559        C572   1.270       .  A
C560        O565   1.270       .  A
C560        C799   1.487       .  S
C561        C806   1.482       .  S
O563        C566   1.269       .  A
O564        C566   1.268       .  A
C566        C816   1.481       .  S
O567        C572   1.269       .  A
O568        C570   1.266       .  A
C569        O571   1.266       .  A
C569        C869   1.488       .  S
C570        C859   1.473       .  S
C572       C1109   1.493       .  S
Fe573       O589   2.060       .  S
Fe573       O579   2.057       .  S
Fe573       O586   2.051       .  S
Fe573       O578   2.059       .  S
Fe573       O584   1.975       .  S
Fe574       O577   2.073       .  S
Fe574       O581   2.059       .  S
Fe574       O585   2.069       .  S
Fe574       O590   2.059       .  S
Fe574       O584   1.977       .  S
Fe575       O593   2.054       .  S
Fe575       O580   2.073       .  S
Fe575       O587   2.073       .  S
Fe575       O576   2.052       .  S
Fe575       O584   1.977       .  S
O576        C583   1.265       .  A
O577        C591   1.270       .  A
O578        C583   1.267       .  A
O579        C582   1.266       .  A
O580        C592   1.270       .  A
O581        C594   1.270       .  A
C582        O587   1.272       .  A
C582        C929   1.490       .  S
C583        C789   1.471       .  S
O585        C588   1.266       .  A
O586        C588   1.266       .  A
C588        C846   1.490       .  S
O589        C594   1.267       .  A
O590        C592   1.269       .  A
C591        O593   1.265       .  A
C591       C1119   1.486       .  S
C592        C819   1.484       .  S
C594        C776   1.487       .  S
Fe595       O611   2.068       .  S
Fe595       O601   2.057       .  S
Fe595       O608   2.054       .  S
Fe595       O600   2.073       .  S
Fe595       O606   1.977       .  S
Fe596       O599   2.068       .  S
Fe596       O603   2.060       .  S
Fe596       O607   2.074       .  S
Fe596       O612   2.067       .  S
Fe596       O606   1.976       .  S
Fe597       O615   2.047       .  S
Fe597       O602   2.082       .  S
Fe597       O609   2.076       .  S
Fe597       O598   2.041       .  S
Fe597       O606   1.975       .  S
O598        C605   1.266       .  A
O599        C613   1.269       .  A
O600        C605   1.269       .  A
O601        C604   1.266       .  A
O602        C614   1.270       .  A
O603        C616   1.267       .  A
C604        O609   1.271       .  A
C604        C899   1.487       .  S
C605        C786   1.473       .  S
O607        C610   1.269       .  A
O608        C610   1.267       .  A
C610        C809   1.482       .  S
O611        C616   1.270       .  A
O612        C614   1.270       .  A
C613        O615   1.267       .  A
C613       C1139   1.475       .  S
C614        C839   1.497       .  S
C616        C766   1.488       .  S
Fe617       O633   2.041       .  S
Fe617       O623   2.085       .  S
Fe617       O630   2.086       .  S
Fe617       O622   2.035       .  S
Fe617       O628   1.967       .  S
Fe618       O621   2.049       .  S
Fe618       O625   2.073       .  S
Fe618       O629   2.038       .  S
Fe618       O634   2.081       .  S
Fe618       O628   1.964       .  S
Fe619       O637   2.079       .  S
Fe619       O624   2.042       .  S
Fe619       O631   2.044       .  S
Fe619       O620   2.081       .  S
Fe619       O628   1.962       .  S
O620        C627   1.272       .  A
O621        C635   1.268       .  A
O622        C627   1.263       .  A
O623        C626   1.273       .  A
O624        C636   1.263       .  A
O625        C638   1.271       .  A
C626        O631   1.264       .  A
C626       C1029   1.484       .  S
C627        C746   1.475       .  S
O629        C632   1.263       .  A
O630        C632   1.273       .  A
C632        C739   1.482       .  S
O633        C638   1.264       .  A
O634        C636   1.271       .  A
C635        O637   1.271       .  A
C635        C796   1.484       .  S
C636        C759   1.487       .  S
C638       C1239   1.473       .  S
Fe639       O655   2.050       .  S
Fe639       O645   2.076       .  S
Fe639       O652   2.073       .  S
Fe639       O644   2.051       .  S
Fe639       O650   1.976       .  S
Fe640       O643   2.055       .  S
Fe640       O647   2.077       .  S
Fe640       O651   2.054       .  S
Fe640       O656   2.071       .  S
Fe640       O650   1.977       .  S
Fe641       O659   2.075       .  S
Fe641       O646   2.044       .  S
Fe641       O653   2.046       .  S
Fe641       O642   2.072       .  S
Fe641       O650   1.977       .  S
O642        C649   1.270       .  A
O643        C657   1.268       .  A
O644        C649   1.264       .  A
O645        C648   1.270       .  A
O646        C658   1.262       .  A
O647        C660   1.271       .  A
C648        O653   1.266       .  A
C648       C1219   1.475       .  S
C649        C729   1.489       .  S
O651        C654   1.264       .  A
O652        C654   1.270       .  A
C654        C756   1.483       .  S
O655        C660   1.268       .  A
O656        C658   1.272       .  A
C657        O659   1.270       .  A
C657        C969   1.483       .  S
C658        C716   1.488       .  S
C660        C769   1.488       .  S
Fe661       O677   2.068       .  S
Fe661       O667   2.051       .  S
Fe661       O674   2.054       .  S
Fe661       O666   2.069       .  S
Fe661       O672   1.960       .  S
Fe662       O665   2.062       .  S
Fe662       O669   2.057       .  S
Fe662       O673   2.063       .  S
Fe662       O678   2.054       .  S
Fe662       O672   1.958       .  S
Fe663       O681   2.066       .  S
Fe663       O668   2.069       .  S
Fe663       O675   2.071       .  S
Fe663       O664   2.066       .  S
Fe663       O672   1.964       .  S
O664        C671   1.271       .  A
O665        C679   1.267       .  A
O666        C671   1.268       .  A
O667        C670   1.267       .  A
O668        C680   1.267       .  A
O669        C682   1.270       .  A
C670        O675   1.268       .  A
C670        C829   1.477       .  S
C671        C706   1.493       .  S
O673        C676   1.267       .  A
O674        C676   1.267       .  A
C676        C749   1.474       .  S
O677        C682   1.269       .  A
O678        C680   1.268       .  A
C679        O681   1.272       .  A
C679       C1299   1.490       .  S
C680        C726   1.483       .  S
C682       C1059   1.476       .  S
Fe683       O699   2.068       .  S
Fe683       O689   2.066       .  S
Fe683       O696   2.063       .  S
Fe683       O688   2.065       .  S
Fe683       O694   1.967       .  S
Fe684       O687   2.060       .  S
Fe684       O691   2.055       .  S
Fe684       O695   2.060       .  S
Fe684       O700   2.053       .  S
Fe684       O694   1.965       .  S
Fe685       O703   2.060       .  S
Fe685       O690   2.074       .  S
Fe685       O697   2.073       .  S
Fe685       O686   2.055       .  S
Fe685       O694   1.969       .  S
O686        C693   1.269       .  A
O687        C701   1.267       .  A
O688        C693   1.268       .  A
O689        C692   1.270       .  A
O690        C702   1.267       .  A
O691        C704   1.267       .  A
C692        O697   1.269       .  A
C692        C989   1.490       .  S
C693        C719   1.485       .  S
O695        C698   1.266       .  A
O696        C698   1.269       .  A
C698        C736   1.480       .  S
O699        C704   1.271       .  A
O700        C702   1.267       .  A
C701        O703   1.270       .  A
C701        C779   1.487       .  S
C702        C709   1.490       .  S
C704       C1269   1.479       .  S
C705        C706   1.407       .  A
C705        C710   1.400       .  A
C705        H712   1.082       .  S
C706        C707   1.419       .  A
C707        C708   1.397       .  A
C707       Br714   1.925       .  S
C708        C709   1.406       .  A
C708        H713   1.083       .  S
C709        C710   1.416       .  A
C710       Br711   1.923       .  S
C715        C716   1.405       .  A
C715        C720   1.395       .  A
C715        H722   1.084       .  S
C716        C717   1.419       .  A
C717        C718   1.397       .  A
C717       Br724   1.926       .  S
C718        C719   1.405       .  A
C718        H723   1.084       .  S
C719        C720   1.416       .  A
C720       Br721   1.923       .  S
C725        C726   1.404       .  A
C725        C730   1.397       .  A
C725        H732   1.084       .  S
C726        C727   1.414       .  A
C727        C728   1.398       .  A
C727       Br734   1.923       .  S
C728        C729   1.407       .  A
C728        H733   1.084       .  S
C729        C730   1.418       .  A
C730       Br731   1.924       .  S
C735        C736   1.401       .  A
C735        C740   1.395       .  A
C735        H742   1.080       .  S
C736        C737   1.413       .  A
C737        C738   1.400       .  A
C737       Br744   1.920       .  S
C738        C739   1.405       .  A
C738        H743   1.082       .  S
C739        C740   1.417       .  A
C740       Br741   1.925       .  S
C745        C746   1.403       .  A
C745        C750   1.398       .  A
C745        H752   1.083       .  S
C746        C747   1.414       .  A
C747        C748   1.395       .  A
C747       Br754   1.924       .  S
C748        C749   1.402       .  A
C748        H753   1.084       .  S
C749        C750   1.412       .  A
C750       Br751   1.921       .  S
C755        C756   1.402       .  A
C755        C760   1.397       .  A
C755        H762   1.084       .  S
C756        C757   1.414       .  A
C757        C758   1.400       .  A
C757       Br764   1.921       .  S
C758        C759   1.406       .  A
C758        H763   1.083       .  S
C759        C760   1.418       .  A
C760       Br761   1.925       .  S
C765        C766   1.408       .  A
C765        C770   1.401       .  A
C765        H772   1.084       .  S
C766        C767   1.416       .  A
C767        C768   1.396       .  A
C767       Br774   1.925       .  S
C768        C769   1.406       .  A
C768        H773   1.084       .  S
C769        C770   1.413       .  A
C770       Br771   1.922       .  S
C775        C776   1.405       .  A
C775        C780   1.395   1_545  A
C775        H782   1.084       .  S
C776        C777   1.416       .  A
C777        C778   1.397   1_545  A
C777       Br784   1.923       .  S
C778        C779   1.406       .  A
C778        H783   1.084       .  S
C779        C780   1.417       .  A
C780       Br781   1.925       .  S
C785        C786   1.402       .  A
C785        C790   1.391       .  A
C785        H792   1.079       .  S
C786        C787   1.410       .  A
C787        C788   1.400       .  A
C787       Br794   1.919       .  S
C788        C789   1.406       .  A
C788        H793   1.083       .  S
C789        C790   1.408       .  A
C790       Br791   1.921       .  S
C795        C796   1.405       .  A
C795        C800   1.395       .  A
C795        H802   1.084       .  S
C796        C797   1.412       .  A
C797        C798   1.400       .  A
C797       Br804   1.922       .  S
C798        C799   1.409       .  A
C798        H803   1.084       .  S
C799        C800   1.416       .  A
C800       Br801   1.924       .  S
C805        C806   1.408       .  A
C805        C810   1.405       .  A
C805        H812   1.084       .  S
C806        C807   1.411       .  A
C807        C808   1.395       .  A
C807       Br814   1.921       .  S
C808        C809   1.403       .  A
C808        H813   1.084       .  S
C809        C810   1.413       .  A
C810       Br811   1.921       .  S
C815        C816   1.405       .  A
C815        C820   1.400       .  A
C815        H822   1.083       .  S
C816        C817   1.412       .  A
C817        C818   1.398       .  A
C817       Br824   1.922       .  S
C818        C819   1.406       .  A
C818        H823   1.083       .  S
C819        C820   1.413       .  A
C820       Br821   1.920       .  S
C825        C826   1.407       .  A
C825        C830   1.401   1_545  A
C825        H832   1.084       .  S
C826        C827   1.417       .  A
C827        C828   1.393   1_545  A
C827       Br834   1.925       .  S
C828        C829   1.401       .  A
C828        H833   1.085       .  S
C829        C830   1.411       .  A
C830       Br831   1.921       .  S
C835        C836   1.407       .  A
C835        C840   1.403       .  A
C835        H842   1.084       .  S
C836        C837   1.415       .  A
C837        C838   1.402       .  A
C837       Br844   1.921       .  S
C838        C839   1.408       .  A
C838        H843   1.084       .  S
C839        C840   1.417       .  A
C840       Br841   1.919       .  S
C845        C846   1.407       .  A
C845        C850   1.396       .  A
C845        H852   1.084       .  S
C846        C847   1.416       .  A
C847        C848   1.398       .  A
C847       Br854   1.923       .  S
C848        C849   1.407       .  A
C848        H853   1.084       .  S
C849        C850   1.417       .  A
C850       Br851   1.925       .  S
C855        C856   1.402       .  A
C855        C860   1.394       .  A
C855        H862   1.084       .  S
C856        C857   1.411       .  A
C857        C858   1.397       .  A
C857       Br864   1.921       .  S
C858        C859   1.404       .  A
C858        H863   1.083       .  S
C859        C860   1.411       .  A
C860       Br861   1.922       .  S
C865        C866   1.403       .  A
C865        C870   1.396   1_655  A
C865        H872   1.085       .  S
C866        C867   1.411       .  A
C867        C868   1.402   1_655  A
C867       Br874   1.920       .  S
C868        C869   1.408       .  A
C868        H873   1.084       .  S
C869        C870   1.418       .  A
C870       Br871   1.925       .  S
C875        C876   1.405       .  A
C875        C880   1.402   1_655  A
C875        H882   1.084       .  S
C876        C877   1.416       .  A
C877        C878   1.395   1_655  A
C877       Br884   1.924       .  S
C878        C879   1.403       .  A
C878        H883   1.084       .  S
C879        C880   1.416       .  A
C880       Br881   1.922       .  S
C885        C886   1.405       .  A
C885        C890   1.401       .  A
C885        H892   1.083       .  S
C886        C887   1.412       .  A
C887        C888   1.398       .  A
C887       Br894   1.923       .  S
C888        C889   1.406       .  A
C888        H893   1.083       .  S
C889        C890   1.414       .  A
C890       Br891   1.921       .  S
C895        C896   1.404       .  A
C895        C900   1.396       .  A
C895        H902   1.084       .  S
C896        C897   1.416       .  A
C897        C898   1.403       .  A
C897       Br904   1.923       .  S
C898        C899   1.406       .  A
C898        H903   1.084       .  S
C899        C900   1.415       .  A
C900       Br901   1.923       .  S
C905        C906   1.405       .  A
C905        C910   1.400       .  A
C905        H912   1.084       .  S
C906        C907   1.414       .  A
C907        C908   1.394       .  A
C907       Br914   1.923       .  S
C908        C909   1.401       .  A
C908        H913   1.084       .  S
C909        C910   1.409       .  A
C910       Br911   1.919       .  S
C915        C916   1.402       .  A
C915        C920   1.398       .  A
C915        H922   1.084       .  S
C916        C917   1.411       .  A
C917        C918   1.401       .  A
C917       Br924   1.919       .  S
C918        C919   1.404       .  A
C918        H923   1.084       .  S
C919        C920   1.414       .  A
C920       Br921   1.922       .  S
C925        C926   1.404       .  A
C925        C930   1.397       .  A
C925        H932   1.084       .  S
C926        C927   1.414       .  A
C927        C928   1.400       .  A
C927       Br934   1.922       .  S
C928        C929   1.407       .  A
C928        H933   1.084       .  S
C929        C930   1.418       .  A
C930       Br931   1.924       .  S
C935        C936   1.408       .  A
C935        C940   1.397       .  A
C935        H942   1.082       .  S
C936        C937   1.415       .  A
C937        C938   1.397       .  A
C937       Br944   1.923       .  S
C938        C939   1.406       .  A
C938        H943   1.082       .  S
C939        C940   1.415       .  A
C940       Br941   1.924       .  S
C945        C946   1.403       .  A
C945        C950   1.393       .  A
C945        H952   1.084       .  S
C946        C947   1.411       .  A
C947        C948   1.402       .  A
C947       Br954   1.920       .  S
C948        C949   1.407       .  A
C948        H953   1.083       .  S
C949        C950   1.413       .  A
C950       Br951   1.924       .  S
C955        C956   1.404       .  A
C955        C960   1.396       .  A
C955        H962   1.087       .  S
C956        C957   1.412       .  A
C957        C958   1.399       .  A
C957       Br964   1.922       .  S
C958        C959   1.405       .  A
C958        H963   1.088       .  S
C959        C960   1.412       .  A
C960       Br961   1.922       .  S
C965        C966   1.406       .  A
C965        C970   1.402       .  A
C965        H972   1.084       .  S
C966        C967   1.412       .  A
C967        C968   1.397       .  A
C967       Br974   1.923       .  S
C968        C969   1.405       .  A
C968        H973   1.085       .  S
C969        C970   1.412       .  A
C970       Br971   1.919       .  S
C975        C976   1.404       .  A
C975        C980   1.397       .  A
C975        H982   1.084       .  S
C976        C977   1.413       .  A
C977        C978   1.403       .  A
C977       Br984   1.922       .  S
C978        C979   1.410       .  A
C978        H983   1.084       .  S
C979        C980   1.419       .  A
C980       Br981   1.924       .  S
C985        C986   1.407       .  A
C985        C990   1.403       .  A
C985        H992   1.084       .  S
C986        C987   1.420       .  A
C987        C988   1.399       .  A
C987       Br994   1.924       .  S
C988        C989   1.404       .  A
C988        H993   1.084       .  S
C989        C990   1.415       .  A
C990       Br991   1.922       .  S
C995        C996   1.406       .  A
C995       C1000   1.396   1_565  A
C995       H1002   1.084       .  S
C996        C997   1.418       .  A
C997        C998   1.396   1_565  A
C997      Br1004   1.925       .  S
C998        C999   1.404       .  A
C998       H1003   1.084       .  S
C999       C1000   1.415       .  A
C1000     Br1001   1.924       .  S
C1005      C1006   1.406       .  A
C1005      C1010   1.394       .  A
C1005      H1012   1.083       .  S
C1006      C1007   1.416       .  A
C1007      C1008   1.397       .  A
C1007     Br1014   1.925       .  S
C1008      C1009   1.407       .  A
C1008      H1013   1.079       .  S
C1009      C1010   1.415       .  A
C1010     Br1011   1.923       .  S
C1015      C1016   1.407       .  A
C1015      C1020   1.401       .  A
C1015      H1022   1.084       .  S
C1016      C1017   1.416       .  A
C1017      C1018   1.396       .  A
C1017     Br1024   1.923       .  S
C1018      C1019   1.403       .  A
C1018      H1023   1.084       .  S
C1019      C1020   1.412       .  A
C1020     Br1021   1.922       .  S
C1025      C1026   1.403       .  A
C1025      C1030   1.394   1_655  A
C1025      H1032   1.084       .  S
C1026      C1027   1.416       .  A
C1027      C1028   1.402   1_655  A
C1027     Br1034   1.922       .  S
C1028      C1029   1.405       .  A
C1028      H1033   1.084       .  S
C1029      C1030   1.416       .  A
C1030     Br1031   1.924       .  S
C1035      C1036   1.405       .  A
C1035      C1040   1.398       .  A
C1035      H1042   1.083       .  S
C1036      C1037   1.415       .  A
C1037      C1038   1.402       .  A
C1037     Br1044   1.922       .  S
C1038      C1039   1.405       .  A
C1038      H1043   1.084       .  S
C1039      C1040   1.413       .  A
C1040     Br1041   1.922       .  S
C1045      C1046   1.404       .  A
C1045      C1050   1.395       .  A
C1045      H1052   1.084       .  S
C1046      C1047   1.412       .  A
C1047      C1048   1.400       .  A
C1047     Br1054   1.921       .  S
C1048      C1049   1.406       .  A
C1048      H1053   1.083       .  S
C1049      C1050   1.412       .  A
C1050     Br1051   1.923       .  S
C1055      C1056   1.406       .  A
C1055      C1060   1.401   1_655  A
C1055      H1062   1.084       .  S
C1056      C1057   1.416       .  A
C1057      C1058   1.394   1_655  A
C1057     Br1064   1.925       .  S
C1058      C1059   1.400       .  A
C1058      H1063   1.084       .  S
C1059      C1060   1.412       .  A
C1060     Br1061   1.921       .  S
C1065      C1066   1.407       .  A
C1065      C1070   1.400   1_565  A
C1065      H1072   1.084       .  S
C1066      C1067   1.421       .  A
C1067      C1068   1.396   1_565  A
C1067     Br1074   1.926       .  S
C1068      C1069   1.403       .  A
C1068      H1073   1.084       .  S
C1069      C1070   1.415       .  A
C1070     Br1071   1.923       .  S
C1075      C1076   1.403       .  A
C1075      C1080   1.395       .  A
C1075      H1082   1.078       .  S
C1076      C1077   1.415       .  A
C1077      C1078   1.397       .  A
C1077     Br1084   1.920       .  S
C1078      C1079   1.403       .  A
C1078      H1083   1.083       .  S
C1079      C1080   1.412       .  A
C1080     Br1081   1.916       .  S
C1085      C1086   1.407       .  A
C1085      C1090   1.402       .  A
C1085      H1092   1.082       .  S
C1086      C1087   1.418       .  A
C1087      C1088   1.402       .  A
C1087     Br1094   1.918       .  S
C1088      C1089   1.404       .  A
C1088      H1093   1.082       .  S
C1089      C1090   1.416       .  A
C1090     Br1091   1.923       .  S
C1095      C1096   1.405       .  A
C1095      C1100   1.400       .  A
C1095      H1102   1.084       .  S
C1096      C1097   1.412       .  A
C1097      C1098   1.392       .  A
C1097     Br1104   1.924       .  S
C1098      C1099   1.406       .  A
C1098      H1103   1.084       .  S
C1099      C1100   1.415       .  A
C1100     Br1101   1.922       .  S
C1105      C1106   1.407       .  A
C1105      C1110   1.401   1_556  A
C1105      H1112   1.084       .  S
C1106      C1107   1.417       .  A
C1107      C1108   1.400   1_556  A
C1107     Br1114   1.924       .  S
C1108      C1109   1.407       .  A
C1108      H1113   1.084       .  S
C1109      C1110   1.415       .  A
C1110     Br1111   1.921       .  S
C1115      C1116   1.405       .  A
C1115      C1120   1.396   1_556  A
C1115      H1122   1.084       .  S
C1116      C1117   1.415       .  A
C1117      C1118   1.403   1_556  A
C1117     Br1124   1.921       .  S
C1118      C1119   1.406       .  A
C1118      H1123   1.084       .  S
C1119      C1120   1.415       .  A
C1120     Br1121   1.924       .  S
C1125      C1126   1.406       .  A
C1125      C1130   1.398       .  A
C1125      H1132   1.083       .  S
C1126      C1127   1.413       .  A
C1127      C1128   1.396       .  A
C1127     Br1134   1.923       .  S
C1128      C1129   1.404       .  A
C1128      H1133   1.082       .  S
C1129      C1130   1.408       .  A
C1130     Br1131   1.920       .  S
C1135      C1136   1.404       .  A
C1135      C1140   1.399       .  A
C1135      H1142   1.085       .  S
C1136      C1137   1.412       .  A
C1137      C1138   1.393       .  A
C1137     Br1144   1.924       .  S
C1138      C1139   1.403       .  A
C1138      H1143   1.085       .  S
C1139      C1140   1.411       .  A
C1140     Br1141   1.920       .  S
C1145      C1146   1.405       .  A
C1145      C1150   1.393       .  A
C1145      H1152   1.084       .  S
C1146      C1147   1.413       .  A
C1147      C1148   1.398       .  A
C1147     Br1154   1.918       .  S
C1148      C1149   1.404       .  A
C1148      H1153   1.084       .  S
C1149      C1150   1.411       .  A
C1150     Br1151   1.920       .  S
C1155      C1156   1.406       .  A
C1155      C1160   1.402       .  A
C1155      H1162   1.083       .  S
C1156      C1157   1.414       .  A
C1157      C1158   1.396       .  A
C1157     Br1164   1.924       .  S
C1158      C1159   1.406       .  A
C1158      H1163   1.083       .  S
C1159      C1160   1.413       .  A
C1160     Br1161   1.921       .  S
C1165      C1166   1.404       .  A
C1165      C1170   1.393       .  A
C1165      H1172   1.084       .  S
C1166      C1167   1.414       .  A
C1167      C1168   1.399       .  A
C1167     Br1174   1.923       .  S
C1168      C1169   1.408       .  A
C1168      H1173   1.084       .  S
C1169      C1170   1.416       .  A
C1170     Br1171   1.925       .  S
C1175      C1176   1.407       .  A
C1175      C1180   1.395       .  A
C1175      H1182   1.083       .  S
C1176      C1177   1.416       .  A
C1177      C1178   1.397       .  A
C1177     Br1184   1.922       .  S
C1178      C1179   1.403       .  A
C1178      H1183   1.083       .  S
C1179      C1180   1.411       .  A
C1180     Br1181   1.923       .  S
C1185      C1186   1.406       .  A
C1185      C1190   1.400       .  A
C1185      H1192   1.084       .  S
C1186      C1187   1.418       .  A
C1187      C1188   1.398       .  A
C1187     Br1194   1.925       .  S
C1188      C1189   1.407       .  A
C1188      H1193   1.083       .  S
C1189      C1190   1.419       .  A
C1190     Br1191   1.924       .  S
C1195      C1196   1.409       .  A
C1195      C1200   1.401       .  A
C1195      H1202   1.083       .  S
C1196      C1197   1.416       .  A
C1197      C1198   1.400       .  A
C1197     Br1204   1.923       .  S
C1198      C1199   1.408       .  A
C1198      H1203   1.083       .  S
C1199      C1200   1.417       .  A
C1200     Br1201   1.923       .  S
C1205      C1206   1.403       .  A
C1205      C1210   1.397       .  A
C1205      H1212   1.084       .  S
C1206      C1207   1.411       .  A
C1207      C1208   1.401       .  A
C1207     Br1214   1.921       .  S
C1208      C1209   1.408       .  A
C1208      H1213   1.084       .  S
C1209      C1210   1.419       .  A
C1210     Br1211   1.924       .  S
C1215      C1216   1.407       .  A
C1215      C1220   1.403       .  A
C1215      H1222   1.084       .  S
C1216      C1217   1.413       .  A
C1217      C1218   1.393       .  A
C1217     Br1224   1.924       .  S
C1218      C1219   1.402       .  A
C1218      H1223   1.084       .  S
C1219      C1220   1.409       .  A
C1220     Br1221   1.919       .  S
C1225      C1226   1.405       .  A
C1225      C1230   1.396       .  A
C1225      H1232   1.084       .  S
C1226      C1227   1.414       .  A
C1227      C1228   1.398       .  A
C1227     Br1234   1.920       .  S
C1228      C1229   1.406       .  A
C1228      H1233   1.084       .  S
C1229      C1230   1.415       .  A
C1230     Br1231   1.924       .  S
C1235      C1236   1.404       .  A
C1235      C1240   1.390   1_556  A
C1235      H1242   1.084       .  S
C1236      C1237   1.414       .  A
C1237      C1238   1.398   1_556  A
C1237     Br1244   1.922       .  S
C1238      C1239   1.404       .  A
C1238      H1243   1.084       .  S
C1239      C1240   1.412       .  A
C1240     Br1241   1.924       .  S
C1245      C1246   1.407       .  A
C1245      C1250   1.398       .  A
C1245      H1252   1.084       .  S
C1246      C1247   1.415       .  A
C1247      C1248   1.398       .  A
C1247     Br1254   1.924       .  S
C1248      C1249   1.406       .  A
C1248      H1253   1.084       .  S
C1249      C1250   1.411       .  A
C1250     Br1251   1.920       .  S
C1255      C1256   1.404       .  A
C1255      C1260   1.390   1_565  A
C1255      H1262   1.084       .  S
C1256      C1257   1.412       .  A
C1257      C1258   1.403   1_565  A
C1257     Br1264   1.921       .  S
C1258      C1259   1.410       .  A
C1258      H1263   1.084       .  S
C1259      C1260   1.417       .  A
C1260     Br1261   1.927       .  S
C1265      C1266   1.406       .  A
C1265      C1270   1.394   1_556  A
C1265      H1272   1.084       .  S
C1266      C1267   1.413       .  A
C1267      C1268   1.400   1_556  A
C1267     Br1274   1.922       .  S
C1268      C1269   1.406       .  A
C1268      H1273   1.084       .  S
C1269      C1270   1.413       .  A
C1270     Br1271   1.923       .  S
C1275      C1276   1.405       .  A
C1275      C1280   1.399       .  A
C1275      H1282   1.084       .  S
C1276      C1277   1.416       .  A
C1277      C1278   1.400       .  A
C1277     Br1284   1.923       .  S
C1278      C1279   1.404       .  A
C1278      H1283   1.085       .  S
C1279      C1280   1.412       .  A
C1280     Br1281   1.921       .  S
C1285      C1286   1.405       .  A
C1285      C1290   1.396       .  A
C1285      H1292   1.085       .  S
C1286      C1287   1.412       .  A
C1287      C1288   1.394       .  A
C1287     Br1294   1.922       .  S
C1288      C1289   1.401       .  A
C1288      H1293   1.085       .  S
C1289      C1290   1.408       .  A
C1290     Br1291   1.919       .  S
C1295      C1296   1.403       .  A
C1295      C1300   1.397       .  A
C1295      H1302   1.083       .  S
C1296      C1297   1.414       .  A
C1297      C1298   1.398       .  A
C1297     Br1304   1.921       .  S
C1298      C1299   1.406       .  A
C1298      H1303   1.083       .  S
C1299      C1300   1.420       .  A
C1300     Br1301   1.925       .  S
C1305      C1306   1.407       .  A
C1305      C1310   1.403   1_565  A
C1305      H1312   1.084       .  S
C1306      C1307   1.417       .  A
C1307      C1308   1.397   1_565  A
C1307     Br1314   1.924       .  S
C1308      C1309   1.404       .  A
C1308      H1313   1.084       .  S
C1309      C1310   1.415       .  A
C1310     Br1311   1.921       .  S
C1315      C1316   1.405       .  A
C1315      C1320   1.397       .  A
C1315      H1322   1.080       .  S
C1316      C1317   1.411       .  A
C1317      C1318   1.400       .  A
C1317     Br1324   1.920       .  S
C1318      C1319   1.404       .  A
C1318      H1323   1.083       .  S
C1319      C1320   1.410       .  A
C1320     Br1321   1.923       .  S
C1325      C1326   1.405       .  A
C1325      C1330   1.397       .  A
C1325      H1332   1.083       .  S
C1326      C1327   1.415       .  A
C1327      C1328   1.396       .  A
C1327     Br1334   1.924       .  S
C1328      C1329   1.403       .  A
C1328      H1333   1.084       .  S
C1329      C1330   1.411       .  A
C1330     Br1331   1.921       .  S
C1335      C1336   1.406       .  A
C1335      C1340   1.396       .  A
C1335      H1342   1.084       .  S
C1336      C1337   1.418       .  A
C1337      C1338   1.396       .  A
C1337     Br1344   1.924       .  S
C1338      C1339   1.403       .  A
C1338      H1343   1.084       .  S
C1339      C1340   1.414       .  A
C1340     Br1341   1.922       .  S
C1345      C1346   1.403       .  A
C1345      C1350   1.401       .  A
C1345      H1352   1.085       .  S
C1346      C1347   1.411       .  A
C1347      C1348   1.393       .  A
C1347     Br1354   1.921       .  S
C1348      C1349   1.404       .  A
C1348      H1353   1.084       .  S
C1349      C1350   1.415       .  A
C1350     Br1351   1.922       .  S
C1355      C1356   1.408       .  A
C1355      C1360   1.400       .  A
C1355      H1362   1.084       .  S
C1356      C1357   1.416       .  A
C1357      C1358   1.393       .  A
C1357     Br1364   1.925       .  S
C1358      C1359   1.404       .  A
C1358      H1363   1.084       .  S
C1359      C1360   1.412       .  A
C1360     Br1361   1.922       .  S
C1365      C1366   1.406       .  A
C1365      C1370   1.402       .  A
C1365      H1372   1.084       .  S
C1366      C1367   1.416       .  A
C1367      C1368   1.395       .  A
C1367     Br1374   1.925       .  S
C1368      C1369   1.406       .  A
C1368      H1373   1.084       .  S
C1369      C1370   1.417       .  A
C1370     Br1371   1.923       .  S
C1375      C1376   1.408       .  A
C1375      C1380   1.393   1_556  A
C1375      H1382   1.084       .  S
C1376      C1377   1.418       .  A
C1377      C1378   1.399   1_556  A
C1377     Br1384   1.924       .  S
C1378      C1379   1.404       .  A
C1378      H1383   1.085       .  S
C1379      C1380   1.411       .  A
C1380     Br1381   1.925       .  S
C1385      C1386   1.405       .  A
C1385      C1390   1.398       .  A
C1385      H1392   1.085       .  S
C1386      C1387   1.408       .  A
C1387      C1388   1.394       .  A
C1387     Br1394   1.921       .  S
C1388      C1389   1.408       .  A
C1388      H1393   1.084       .  S
C1389      C1390   1.417       .  A
C1390     Br1391   1.925       .  S
C1395      C1396   1.409       .  A
C1395      C1400   1.404   1_655  A
C1395      H1402   1.084       .  S
C1396      C1397   1.418       .  A
C1397      C1398   1.396   1_655  A
C1397     Br1404   1.926       .  S
C1398      C1399   1.407       .  A
C1398      H1403   1.084       .  S
C1399      C1400   1.416       .  A
C1400     Br1401   1.921       .  S
C1405      C1406   1.408       .  A
C1405      C1410   1.404   1_556  A
C1405      H1412   1.083       .  S
C1406      C1407   1.420       .  A
C1407      C1408   1.398   1_556  A
C1407     Br1414   1.926       .  S
C1408      C1409   1.404       .  A
C1408      H1413   1.084       .  S
C1409      C1410   1.415       .  A
C1410     Br1411   1.922       .  S
C1415      C1416   1.404       .  A
C1415      C1420   1.400       .  A
C1415      H1422   1.083       .  S
C1416      C1417   1.412       .  A
C1417      C1418   1.397       .  A
C1417     Br1424   1.922       .  S
C1418      C1419   1.404       .  A
C1418      H1423   1.084       .  S
C1419      C1420   1.411       .  A
C1420     Br1421   1.920       .  S
C1425      C1426   1.405       .  A
C1425      C1430   1.395       .  A
C1425      H1432   1.085       .  S
C1426      C1427   1.413       .  A
C1427      C1428   1.401       .  A
C1427     Br1434   1.920       .  S
C1428      C1429   1.404       .  A
C1428      H1433   1.084       .  S
C1429      C1430   1.410       .  A
C1430     Br1431   1.922       .  S
C1435      C1436   1.405       .  A
C1435      C1440   1.394       .  A
C1435      H1442   1.083       .  S
C1436      C1437   1.413       .  A
C1437      C1438   1.396       .  A
C1437     Br1444   1.923       .  S
C1438      C1439   1.408       .  A
C1438      H1443   1.083       .  S
C1439      C1440   1.417       .  A
C1440     Br1441   1.925       .  S
C1445      C1446   1.405       .  A
C1445      C1450   1.393   1_655  A
C1445      H1452   1.084       .  S
C1446      C1447   1.414       .  A
C1447      C1448   1.405   1_655  A
C1447     Br1454   1.922       .  S
C1448      C1449   1.409       .  A
C1448      H1453   1.084       .  S
C1449      C1450   1.413       .  A
C1450     Br1451   1.923       .  S
C1455      C1456   1.404       .  A
C1455      C1460   1.397       .  A
C1455      H1462   1.084       .  S
C1456      C1457   1.411       .  A
C1457      C1458   1.398       .  A
C1457     Br1464   1.921       .  S
C1458      C1459   1.405       .  A
C1458      H1463   1.083       .  S
C1459      C1460   1.414       .  A
C1460     Br1461   1.922       .  S
C1465      C1466   1.404       .  A
C1465      C1470   1.398       .  A
C1465      H1472   1.085       .  S
C1466      C1467   1.412       .  A
C1467      C1468   1.398       .  A
C1467     Br1474   1.921       .  S
C1468      C1469   1.405       .  A
C1468      H1473   1.085       .  S
C1469      C1470   1.417       .  A
C1470     Br1471   1.924       .  S
C1475      C1476   1.403       .  A
C1475      C1480   1.393       .  A
C1475      H1482   1.085       .  S
C1476      C1477   1.411       .  A
C1477      C1478   1.398       .  A
C1477     Br1484   1.921       .  S
C1478      C1479   1.406       .  A
C1478      H1483   1.084       .  S
C1479      C1480   1.417       .  A
C1480     Br1481   1.926       .  S
C1485      C1486   1.409       .  A
C1485      C1490   1.404       .  A
C1485      H1492   1.084       .  S
C1486      C1487   1.416       .  A
C1487      C1488   1.395       .  A
C1487     Br1494   1.925       .  S
C1488      C1489   1.406       .  A
C1488      H1493   1.083       .  S
C1489      C1490   1.415       .  A
C1490     Br1491   1.922       .  S
C1495      C1496   1.406       .  A
C1495      C1500   1.398       .  A
C1495      H1502   1.084       .  S
C1496      C1497   1.418       .  A
C1497      C1498   1.394       .  A
C1497     Br1504   1.926       .  S
C1498      C1499   1.405       .  A
C1498      H1503   1.084       .  S
C1499      C1500   1.415       .  A
C1500     Br1501   1.923       .  S
C1505      C1506   1.407       .  A
C1505      C1510   1.402       .  A
C1505      H1512   1.084       .  S
C1506      C1507   1.415       .  A
C1507      C1508   1.396       .  A
C1507     Br1514   1.924       .  S
C1508      C1509   1.402       .  A
C1508      H1513   1.085       .  S
C1509      C1510   1.410       .  A
C1510     Br1511   1.920       .  S
C1515      C1516   1.406       .  A
C1515      C1520   1.399       .  A
C1515      H1522   1.084       .  S
C1516      C1517   1.415       .  A
C1517      C1518   1.397       .  A
C1517     Br1524   1.923       .  S
C1518      C1519   1.408       .  A
C1518      H1523   1.083       .  S
C1519      C1520   1.417       .  A
C1520     Br1521   1.923       .  S
C1525      C1526   1.406       .  A
C1525      C1530   1.399   1_655  A
C1525      H1532   1.084       .  S
C1526      C1527   1.415       .  A
C1527      C1528   1.399   1_655  A
C1527     Br1534   1.924       .  S
C1528      C1529   1.408       .  A
C1528      H1533   1.084       .  S
C1529      C1530   1.417       .  A
C1530     Br1531   1.922       .  S
C1535      C1536   1.404       .  A
C1535      C1540   1.395   1_556  A
C1535      H1542   1.084       .  S
C1536      C1537   1.412       .  A
C1537      C1538   1.397   1_556  A
C1537     Br1544   1.920       .  S
C1538      C1539   1.406       .  A
C1538      H1543   1.083       .  S
C1539      C1540   1.417       .  A
C1540     Br1541   1.925       .  S
C1545      C1546   1.403       .  A
C1545      C1550   1.393       .  A
C1545      H1552   1.084       .  S
C1546      C1547   1.415       .  A
C1547      C1548   1.404       .  A
C1547     Br1554   1.922       .  S
C1548      C1549   1.405       .  A
C1548      H1553   1.084       .  S
C1549      C1550   1.411       .  A
C1550     Br1551   1.920       .  S
C1555      C1556   1.406       .  A
C1555      C1560   1.398       .  A
C1555      H1562   1.084       .  S
C1556      C1557   1.415       .  A
C1557      C1558   1.400       .  A
C1557     Br1564   1.921       .  S
C1558      C1559   1.406       .  A
C1558      H1563   1.084       .  S
C1559      C1560   1.417       .  A
C1560     Br1561   1.925       .  S
C1565      C1566   1.406       .  A
C1565      C1570   1.398   1_565  A
C1565      H1572   1.083       .  S
C1566      C1567   1.416       .  A
C1567      C1568   1.403   1_565  A
C1567     Br1574   1.922       .  S
C1568      C1569   1.408       .  A
C1568      H1573   1.084       .  S
C1569      C1570   1.416       .  A
C1570     Br1571   1.923       .  S
C1575      C1576   1.408       .  A
C1575      C1580   1.399   1_556  A
C1575      H1582   1.084       .  S
C1576      C1577   1.417       .  A
C1577      C1578   1.395   1_556  A
C1577     Br1584   1.925       .  S
C1578      C1579   1.404       .  A
C1578      H1583   1.084       .  S
C1579      C1580   1.413       .  A
C1580     Br1581   1.922       .  S
C1585      C1586   1.402       .  A
C1585      C1590   1.395       .  A
C1585      H1592   1.083       .  S
C1586      C1587   1.409       .  A
C1587      C1588   1.399       .  A
C1587     Br1594   1.920       .  S
C1588      C1589   1.403       .  A
C1588      H1593   1.083       .  S
C1589      C1590   1.410       .  A
C1590     Br1591   1.922       .  S
C1595      C1596   1.405       .  A
C1595      C1600   1.397       .  A
C1595      H1602   1.084       .  S
C1596      C1597   1.414       .  A
C1597      C1598   1.399       .  A
C1597     Br1604   1.922       .  S
C1598      C1599   1.408       .  A
C1598      H1603   1.083       .  S
C1599      C1600   1.419       .  A
C1600     Br1601   1.926       .  S
C1605      C1606   1.406       .  A
C1605      C1610   1.403       .  A
C1605      H1612   1.084       .  S
C1606      C1607   1.416       .  A
C1607      C1608   1.394       .  A
C1607     Br1614   1.922       .  S
C1608      C1609   1.399       .  A
C1608      H1613   1.085       .  S
C1609      C1610   1.411       .  A
C1610     Br1611   1.920       .  S
C1615      C1616   1.408       .  A
C1615      C1620   1.398   1_655  A
C1615      H1622   1.084       .  S
C1616      C1617   1.418       .  A
C1617      C1618   1.402   1_655  A
C1617     Br1624   1.919       .  S
C1618      C1619   1.408       .  A
C1618      H1623   1.084       .  S
C1619      C1620   1.418       .  A
C1620     Br1621   1.924       .  S
C1625      C1626   1.406       .  A
C1625      C1630   1.396   1_565  A
C1625      H1632   1.084       .  S
C1626      C1627   1.414       .  A
C1627      C1628   1.394   1_565  A
C1627     Br1634   1.921       .  S
C1628      C1629   1.407       .  A
C1628      H1633   1.084       .  S
C1629      C1630   1.416       .  A
C1630     Br1631   1.923       .  S
C1635      C1636   1.403       .  A
C1635      C1640   1.396       .  A
C1635      H1642   1.083       .  S
C1636      C1637   1.410       .  A
C1637      C1638   1.404       .  A
C1637     Br1644   1.920       .  S
C1638      C1639   1.405       .  A
C1638      H1643   1.083       .  S
C1639      C1640   1.409       .  A
C1640     Br1641   1.921       .  S
C1645      C1646   1.404       .  A
C1645      C1650   1.401       .  A
C1645      H1652   1.084       .  S
C1646      C1647   1.409       .  A
C1647      C1648   1.392       .  A
C1647     Br1654   1.922       .  S
C1648      C1649   1.406       .  A
C1648      H1653   1.084       .  S
C1649      C1650   1.415       .  A
C1650     Br1651   1.922       .  S
C1655      C1656   1.405       .  A
C1655      C1660   1.401       .  A
C1655      H1662   1.084       .  S
C1656      C1657   1.408       .  A
C1657      C1658   1.400       .  A
C1657     Br1664   1.920       .  S
C1658      C1659   1.409       .  A
C1658      H1663   1.084       .  S
C1659      C1660   1.416       .  A
C1660     Br1661   1.923       .  S
