geometry optimzed in LAMMPS
_audit_creation_date              2020-11-30 
_audit_creation_method            'lammps2cif' 
_symmetry_space_group_name_H-M    'P1' 
_symmetry_Int_Tables_number       1 
_symmetry_cell_setting            triclinic 
loop_ 
_symmetry_equiv_pos_as_xyz 
  x,y,z 
_cell_length_a                    43.17263354 
_cell_length_b                    34.56617128696089 
_cell_length_c                    27.72731713441215 
_cell_angle_alpha                 89.08248745051591 
_cell_angle_beta                  89.46388345426126 
_cell_angle_gamma                 89.80708305302957 
loop_ 
_atom_site_label 
_atom_site_type_symbol 
_atom_site_fract_x 
_atom_site_fract_y 
_atom_site_fract_z 
_atom_site_charge 
C1          C  0.96599070  0.38057075  0.16114596    -0.02500
C2          C  0.56762525  0.11448379  0.69513902    -0.02500
Zn3        Zn  0.61865540  0.13998070  0.23640538     1.49700
Zn4        Zn  0.69202716  0.13303938  0.25366799     1.49400
Zn5        Zn  0.64988454  0.17961648  0.32907850     1.49100
Zn6        Zn  0.64476247  0.09055113  0.32758425     1.49500
O7          O  0.65121625  0.13591519  0.28602590    -1.84100
O8          O  0.63746373  0.13385931  0.16804443    -0.74700
O9          O  0.71896003  0.17830846  0.27199436    -0.74600
O10         O  0.61682111  0.21590288  0.30716442    -0.74100
O11         O  0.68824708  0.12951403  0.18016942    -0.74800
O12         O  0.59412743  0.19123039  0.24288987    -0.74300
O13         O  0.68983057  0.20844132  0.32647930    -0.74900
O14         O  0.62956634  0.10310631  0.39574151    -0.74300
O15         O  0.71600004  0.08704051  0.27863308    -0.75100
O16         O  0.64119542  0.16529829  0.39936880    -0.74500
O17         O  0.68552093  0.06292087  0.33683780    -0.74900
O18         O  0.61412470  0.05543086  0.29548891    -0.74800
O19         O  0.58950827  0.09437410  0.24332446    -0.74600
C20         C  0.66506863  0.12943161  0.15183829     0.77200
C21         C  0.71495815  0.20498221  0.30262319     0.77600
C22         C  0.59676656  0.21808262  0.27383098     0.76600
C23         C  0.63206106  0.13405544  0.41980976     0.77000
C24         C  0.71127434  0.06391055  0.31408875     0.78100
C25         C  0.59283703  0.06171044  0.26467575     0.77200
C26         C  0.72057360  0.11758327  0.86999265    -0.02500
Zn27       Zn  0.92505879  0.36236344  0.71385227     1.49700
Zn28       Zn  0.89746121  0.41909700  0.79100053     1.49400
Zn29       Zn  0.85015513  0.36585092  0.73796874     1.49100
Zn30       Zn  0.89804183  0.32849212  0.81232310     1.49500
O31         O  0.89249893  0.36839767  0.76321924    -1.84100
O32         O  0.95283371  0.41035176  0.70891803    -0.74700
O33         O  0.85652773  0.44575222  0.80328840    -0.74600
O34         O  0.85279459  0.36709874  0.66462893    -0.74100
O35         O  0.92445267  0.45318451  0.74911586    -0.74800
O36         O  0.90334309  0.35913678  0.65014982    -0.74300
O37         O  0.82293178  0.41015940  0.76356289    -0.74900
O38         O  0.86094121  0.29369839  0.81696216    -0.74300
O39         O  0.91795790  0.41394498  0.85512666    -0.75100
O40         O  0.82957799  0.31517200  0.75904296    -0.74500
O41         O  0.90935404  0.35226872  0.87595912    -0.74900
O42         O  0.93194867  0.29145677  0.79367478    -0.74800
O43         O  0.95150210  0.31307495  0.72412384    -0.74600
C44         C  0.94730173  0.44504794  0.72169725     0.77200
C45         C  0.82892133  0.43907415  0.79007123     0.77600
C46         C  0.87554120  0.36267249  0.63534009     0.76600
C47         C  0.83673415  0.29025748  0.79152847     0.77000
C48         C  0.91884832  0.38614976  0.88564729     0.78100
C49         C  0.95060355  0.28779875  0.75822052     0.77200
C50         C  0.82503709  0.38640962  0.35654583    -0.02500
C51         C  0.47068730  0.39147671  0.26623010    -0.02500
C52         C  0.07332362  0.11010369  0.73707952    -0.02500
Zn53       Zn  0.14918619  0.08501664  0.10276509     1.49700
Zn54       Zn  0.11665172  0.12632768  0.19218747     1.49400
Zn55       Zn  0.18997779  0.13847946  0.17126638     1.49100
Zn56       Zn  0.13962629  0.17599134  0.10109131     1.49500
O57         O  0.14893310  0.13138462  0.14198224    -1.84100
O58         O  0.11771282  0.04708644  0.12768583    -0.74700
O59         O  0.13675842  0.12075789  0.25710003    -0.74600
O60         O  0.21996477  0.09701170  0.15020889    -0.74100
O61         O  0.09010390  0.07814518  0.18306640    -0.74800
O62         O  0.19086159  0.05868288  0.10568226    -0.74300
O63         O  0.18662367  0.13357710  0.24412060    -0.74900
O64         O  0.17599664  0.21176296  0.09734242    -0.74300
O65         O  0.08929730  0.17416391  0.19434886    -0.75100
O66         O  0.21002842  0.18906754  0.15025215    -0.74500
O67         O  0.10311869  0.20594034  0.12713199    -0.74900
O68         O  0.13116490  0.16064805  0.03297530    -0.74800
O69         O  0.13840117  0.09697339  0.03281221    -0.74600
C70         C  0.09522599  0.04831003  0.15764874     0.77200
C71         C  0.16421972  0.12495825  0.27262589     0.77600
C72         C  0.21658387  0.06685916  0.12515770     0.76600
C73         C  0.20197086  0.21405395  0.11844517     0.77000
C74         C  0.08632042  0.20263595  0.16499217     0.78100
C75         C  0.13181267  0.12862979  0.01097975     0.77200
C76         C  0.22047190  0.12033694  0.54899616    -0.02500
Zn77       Zn  0.38080789  0.31961542  0.70456222     1.49700
Zn78       Zn  0.35816112  0.36832597  0.61383081     1.49400
Zn79       Zn  0.38457696  0.41296629  0.70665992     1.49100
Zn80       Zn  0.43037370  0.36569723  0.64137354     1.49500
O81         O  0.38812096  0.36682095  0.66675399    -1.84100
O82         O  0.34298504  0.29090649  0.68241518    -0.74700
O83         O  0.33474072  0.41964907  0.61349710    -0.74600
O84         O  0.37057422  0.39717689  0.77426047    -0.74100
O85         O  0.32790084  0.32328232  0.61700927    -0.74800
O86         O  0.37494446  0.33285475  0.77430174    -0.74300
O87         O  0.35447489  0.45090485  0.67579365    -0.74900
O88         O  0.45749873  0.40666452  0.66737353    -0.74300
O89         O  0.38099753  0.36378238  0.55023332    -0.75100
O90         O  0.42599980  0.44130078  0.71314482    -0.74500
O91         O  0.43053228  0.37058438  0.56991558    -0.74900
O92         O  0.45137218  0.31571193  0.65559779    -0.74800
O93         O  0.41623845  0.28182298  0.69716182    -0.74600
C94         C  0.32507198  0.29474785  0.64641075     0.77200
C95         C  0.33659594  0.44975137  0.63942401     0.77600
C96         C  0.36990103  0.36442626  0.79623988     0.76600
C97         C  0.45283403  0.43491043  0.69522932     0.77000
C98         C  0.40952273  0.36666512  0.53861064     0.78100
C99         C  0.44265977  0.28479794  0.67675125     0.77200
C100        C  0.32631002  0.38397486  0.07824620    -0.02500
C101        C  0.36372272  0.36279708  0.84867227    -0.05200
C102        C  0.37602314  0.33235279  0.87678634    -0.05200
C103        C  0.37117090  0.33097254  0.92661248    -0.23300
C104        C  0.35349107  0.35969071  0.94908860     0.18900
C105        C  0.34040659  0.38988668  0.92107364     0.16100
C106        C  0.34587418  0.39155901  0.87107418    -0.18300
C107        C  0.32168936  0.41752226  0.94344686    -0.20200
C108        C  0.31656170  0.41589898  0.99326020    -0.12700
C109        C  0.33116445  0.38748110  0.02264235     0.03900
C110        C  0.34868532  0.35858303  0.99911959    -0.24900
H111        H  0.38992989  0.30992875  0.86029941     0.09000
H112        H  0.38127233  0.30747481  0.94755165     0.12600
H113        H  0.33596665  0.41488300  0.84956458     0.12500
H114        H  0.31055783  0.44013840  0.92228056     0.12300
H115        H  0.30040448  0.43662925  0.00761823     0.12900
H116        H  0.35891984  0.33527975  0.02029863     0.14800
C117        C  0.23677452  0.15936474  0.56003214    -0.05200
C118        C  0.24144420  0.18905180  0.52491801    -0.05200
C119        C  0.25828404  0.22232957  0.53535577    -0.23300
C120        C  0.27005744  0.22776121  0.58159303     0.18900
C121        C  0.26329057  0.20031514  0.61836087     0.16100
C122        C  0.24606321  0.16714005  0.60773661    -0.18300
C123        C  0.27480208  0.20580474  0.66484952    -0.20200
C124        C  0.29398281  0.23726889  0.67425743    -0.12700
C125        C  0.30167134  0.26426931  0.63759606     0.03900
C126        C  0.28889536  0.25978754  0.59147549    -0.24900
H127        H  0.23209830  0.18723161  0.48907251     0.09000
H128        H  0.26231668  0.24371405  0.50700281     0.12600
H129        H  0.24139557  0.14606737  0.63620347     0.12500
H130        H  0.26974613  0.18512922  0.69361538     0.12300
H131        H  0.30333022  0.24004197  0.71014089     0.12900
H132        H  0.29467686  0.28022135  0.56274633     0.14800
C133        C  0.31862307  0.48483913  0.62594475    -0.05200
C134        C  0.33127978  0.52162267  0.63354333    -0.05200
C135        C  0.31566512  0.05506749  0.61830707    -0.23300
C136        C  0.28659272  0.05249466  0.59644431     0.18900
C137        C  0.27315811  0.01576399  0.59003607     0.16100
C138        C  0.28950265  0.48209386  0.60391087    -0.18300
C139        C  0.24363844  0.01339169  0.56986676    -0.20200
C140        C  0.22734219  0.04702191  0.55720414    -0.12700
C141        C  0.24021744  0.08418621  0.56327512     0.03900
C142        C  0.27074409  0.08612029  0.58130873    -0.24900
H143        H  0.35374531  0.52447512  0.65016986     0.09000
H144        H  0.32626247  0.08298906  0.62393284     0.12600
H145        H  0.27944399  0.45386197  0.59817382     0.12500
H146        H  0.23289091  0.98551708  0.56458135     0.12300
H147        H  0.20426140  0.04409865  0.54278226     0.12900
H148        H  0.28262008  0.11341920  0.58382716     0.14800
C149        C  0.17009442  0.11925954  0.32489025    -0.05200
C150        C  0.14538083  0.11108869  0.35686416    -0.05200
C151        C  0.15055412  0.10608440  0.40618477    -0.23300
C152        C  0.18049417  0.10959916  0.42464649     0.18900
C153        C  0.20563128  0.11673117  0.39291978     0.16100
C154        C  0.20033924  0.12140101  0.34323384    -0.18300
C155        C  0.23557974  0.11924888  0.41158253    -0.20200
C156        C  0.24015526  0.11798786  0.46144939    -0.12700
C157        C  0.21481325  0.11558576  0.49401236     0.03900
C158        C  0.18545406  0.10729720  0.47449162    -0.24900
H159        H  0.12189435  0.10886024  0.34384430     0.09000
H160        H  0.13100161  0.10040803  0.43003348     0.12600
H161        H  0.21970873  0.12712764  0.31903788     0.12500
H162        H  0.25536444  0.12338614  0.38774648     0.12300
H163        H  0.26344487  0.12137170  0.47490365     0.12900
H164        H  0.16605653  0.09964331  0.49755522     0.14800
C165        C  0.22322511  0.24599641  0.10436648    -0.05200
C166        C  0.21352846  0.27400694  0.07032651    -0.05200
C167        C  0.23317968  0.30389144  0.05565400    -0.23300
C168        C  0.26290065  0.30662834  0.07495026     0.18900
C169        C  0.27330554  0.27858012  0.10859861     0.16100
C170        C  0.25343690  0.24822257  0.12303142    -0.18300
C171        C  0.30318569  0.28186522  0.12764210    -0.20200
C172        C  0.32163843  0.31411404  0.11617654    -0.12700
C173        C  0.31036663  0.34404070  0.08572975     0.03900
C174        C  0.28173979  0.33810040  0.06263040    -0.24900
H175        H  0.19058501  0.27296508  0.05495301     0.09000
H176        H  0.22489856  0.32528447  0.02979782     0.12600
H177        H  0.26138596  0.22664669  0.14890487     0.12500
H178        H  0.31194938  0.26006731  0.15253727     0.12300
H179        H  0.34421461  0.31570861  0.13242994     0.12900
H180        H  0.27289152  0.36011944  0.03805370     0.14800
C181        C  0.30467815  0.41619811  0.09879222    -0.05200
C182        C  0.27804533  0.40704411  0.12708256    -0.05200
C183        C  0.25639409  0.43507976  0.13917332    -0.23300
C184        C  0.26126704  0.47352172  0.12565951     0.18900
C185        C  0.28962128  0.48456755  0.10371504     0.16100
C186        C  0.31163694  0.45592250  0.09184445    -0.18300
C187        C  0.29470062  0.02383965  0.09240801    -0.20200
C188        C  0.27131407  0.05130156  0.10086783    -0.12700
C189        C  0.24253551  0.03962459  0.11999541     0.03900
C190        C  0.23792011  0.50090957  0.13325080    -0.24900
H191        H  0.27316215  0.37800535  0.13982053     0.09000
H192        H  0.23548101  0.42647338  0.15838671     0.12600
H193        H  0.33306615  0.46417373  0.07384697     0.12500
H194        H  0.31635190  0.03312394  0.07598511     0.12300
H195        H  0.27523483  0.08131761  0.09086834     0.12900
H196        H  0.21588342  0.49205652  0.14893068     0.14800
C197        C  0.10405210  0.11031990  0.70705082    -0.05200
C198        C  0.13081495  0.09114520  0.72490022    -0.05200
C199        C  0.15757867  0.08736471  0.69694237    -0.23300
C200        C  0.15935378  0.10445823  0.65110720     0.18900
C201        C  0.13362804  0.12498992  0.63293623     0.16100
C202        C  0.10545289  0.12483287  0.65905327    -0.18300
C203        C  0.13705597  0.14655688  0.59002985    -0.20200
C204        C  0.16547837  0.14689564  0.56525456    -0.12700
C205        C  0.18986784  0.12168522  0.57895146     0.03900
C206        C  0.18668399  0.10174406  0.62360076    -0.24900
H207        H  0.13097449  0.07740955  0.76020285     0.09000
H208        H  0.17716415  0.07161179  0.71170041     0.12600
H209        H  0.08501202  0.13747738  0.64272323     0.12500
H210        H  0.11815619  0.16425350  0.57657264     0.12300
H211        H  0.16792166  0.16550236  0.53367049     0.12900
H212        H  0.20584304  0.08524270  0.63831400     0.14800
C213        C  0.12481476  0.12875256  0.95898650    -0.05200
C214        C  0.13516144  0.15950057  0.92936572    -0.05200
C215        C  0.12763778  0.16111201  0.88051051    -0.23300
C216        C  0.10885265  0.13255740  0.86073820     0.18900
C217        C  0.09802936  0.10172869  0.89029221     0.16100
C218        C  0.10663386  0.09950997  0.93907210    -0.18300
C219        C  0.07797650  0.07441517  0.87094391    -0.20200
C220        C  0.06896389  0.07730715  0.82271459    -0.12700
C221        C  0.08100216  0.10660668  0.79167223     0.03900
C222        C  0.10045892  0.13467473  0.81203868    -0.24900
H223        H  0.14922225  0.18228621  0.94408830     0.09000
H224        H  0.13606456  0.18504652  0.85840639     0.12600
H225        H  0.09821370  0.07600342  0.96193736     0.12500
H226        H  0.06871637  0.05118324  0.89340584     0.12300
H227        H  0.05223494  0.05658364  0.81053275     0.12900
H228        H  0.10930501  0.15812653  0.78949653     0.14800
C229        C  0.43987223  0.39160246  0.23741010    -0.05200
C230        C  0.41033745  0.39463195  0.25987259    -0.05200
C231        C  0.38313541  0.39199348  0.23348720    -0.23300
C232        C  0.38433400  0.38969890  0.18332782     0.18900
C233        C  0.41324936  0.39141698  0.15944163     0.16100
C234        C  0.44075365  0.39186125  0.18640021    -0.18300
C235        C  0.41406122  0.39331164  0.10902729    -0.20200
C236        C  0.38658226  0.39252339  0.08266821    -0.12700
C237        C  0.35743333  0.38717028  0.10581812     0.03900
C238        C  0.35694807  0.38677613  0.15677033    -0.24900
H239        H  0.40754940  0.39965938  0.29792218     0.09000
H240        H  0.36105330  0.39279246  0.25236614     0.12600
H241        H  0.46296259  0.39219297  0.16783615     0.12500
H242        H  0.43595631  0.39613521  0.08989188     0.12300
H243        H  0.38882320  0.39627858  0.04413764     0.12900
H244        H  0.33500815  0.38425403  0.17585551     0.14800
C245        C  0.46493013  0.38985766  0.32167107    -0.05200
C246        C  0.47983416  0.41512371  0.35379925    -0.05200
C247        C  0.47328175  0.41391279  0.40306066    -0.23300
C248        C  0.45144070  0.38783455  0.42160686     0.18900
C249        C  0.43787512  0.36059755  0.39090538     0.16100
C250        C  0.44643792  0.36006283  0.34208401    -0.18300
C251        C  0.41496986  0.33551551  0.40910428    -0.20200
C252        C  0.40505934  0.33821382  0.45704283    -0.12700
C253        C  0.41884947  0.36488300  0.48775348     0.03900
C254        C  0.44250610  0.38905242  0.47015993    -0.24900
H255        H  0.49705249  0.43572595  0.34154010     0.09000
H256        H  0.48465590  0.43419433  0.42641899     0.12600
H257        H  0.43659651  0.33842306  0.31890476     0.12500
H258        H  0.40415479  0.31460790  0.38598132     0.12300
H259        H  0.38704415  0.31901120  0.47042579     0.12900
H260        H  0.45315972  0.40969405  0.49390427     0.14800
C261        C  0.05509511  0.07407496  0.71949205    -0.05200
C262        C  0.06843539  0.03674184  0.72486505    -0.05200
C263        C  0.05090476  0.00325346  0.71938847    -0.23300
C264        C  0.01943125  0.00595661  0.70853921     0.18900
C265        C  0.00645995  0.04260925  0.69764329     0.16100
C266        C  0.02482379  0.07607825  0.70037462    -0.18300
C267        C  0.97470204  0.04551462  0.68795318    -0.20200
C268        C  0.95562389  0.51308907  0.69343569    -0.12700
C269        C  0.96814217  0.47688339  0.70648853     0.03900
C270        C  0.00033458  0.47306871  0.71159178    -0.24900
H271        H  0.09185519  0.03316895  0.73748676     0.09000
H272        H  0.06149781  0.47536904  0.72697480     0.12600
H273        H  0.01450359  0.10356197  0.69053315     0.12500
H274        H  0.96427322  0.07330985  0.67936300     0.12300
H275        H  0.93084907  0.51652774  0.68913846     0.12900
H276        H  0.01010118  0.44527777  0.72209697     0.14800
C277        C  0.97042277  0.25246180  0.75681206    -0.05200
C278        C  0.95994442  0.21846209  0.78025519    -0.05200
C279        C  0.97781836  0.18471441  0.78030884    -0.23300
C280        C  0.00684775  0.18418751  0.75737367     0.18900
C281        C  0.01787132  0.21798731  0.73383592     0.16100
C282        C  0.99946059  0.25191448  0.73315215    -0.18300
C283        C  0.04748257  0.21744931  0.71271413    -0.20200
C284        C  0.06557022  0.18363960  0.71375359    -0.12700
C285        C  0.05405877  0.14852631  0.73387423     0.03900
C286        C  0.02504410  0.15038478  0.75804927    -0.24900
H287        H  0.93760789  0.21784120  0.79837267     0.09000
H288        H  0.96894647  0.15902403  0.79852007     0.12600
H289        H  0.00795574  0.27794267  0.71526405     0.12500
H290        H  0.05700604  0.24349197  0.69623360     0.12300
H291        H  0.08898529  0.18605936  0.70023405     0.12900
H292        H  0.01644080  0.12497358  0.77721512     0.14800
C293        C  0.82933231  0.38020870  0.41177989    -0.05200
C294        C  0.80369211  0.38359099  0.44361253    -0.05200
C295        C  0.80721569  0.38022496  0.49360622    -0.23300
C296        C  0.83627089  0.37176081  0.51323700     0.18900
C297        C  0.86155041  0.36472480  0.48196673     0.16100
C298        C  0.85779990  0.36801027  0.43195112    -0.18300
C299        C  0.89050726  0.35512624  0.50113709    -0.20200
C300        C  0.89471838  0.35396121  0.55089964    -0.12700
C301        C  0.87000896  0.36203429  0.58265679     0.03900
C302        C  0.84057474  0.37028551  0.56346861    -0.24900
H303        H  0.78090889  0.39026897  0.42970845     0.09000
H304        H  0.78726836  0.38467815  0.51688228     0.12600
H305        H  0.87743425  0.36089461  0.40931472     0.12500
H306        H  0.91010753  0.34929752  0.47762572     0.12300
H307        H  0.91756245  0.34711532  0.56446866     0.12900
H308        H  0.82122730  0.37627035  0.58742690     0.14800
C309        C  0.80355611  0.46557406  0.80601772    -0.05200
C310        C  0.77367647  0.46277569  0.78663259    -0.05200
C311        C  0.75026494  0.48881568  0.79987061    -0.23300
C312        C  0.75628035  0.01848270  0.83249422     0.18900
C313        C  0.78576932  0.02080344  0.85359204     0.16100
C314        C  0.80914446  0.49431162  0.84051356    -0.18300
C315        C  0.79153343  0.05017154  0.88660214    -0.20200
C316        C  0.76942814  0.07915511  0.89483025    -0.12700
C317        C  0.74112196  0.08012071  0.86954489     0.03900
C318        C  0.73373879  0.04686613  0.84251444    -0.24900
H319        H  0.76851568  0.44087885  0.76041790     0.09000
H320        H  0.72770993  0.48647336  0.78338388     0.12600
H321        H  0.83186874  0.49663825  0.85647143     0.12500
H322        H  0.81373642  0.05185730  0.90431552     0.12300
H323        H  0.77568121  0.10272646  0.91794861     0.12900
H324        H  0.71109129  0.04359749  0.82685941     0.14800
C325        C  0.73841344  0.15377224  0.85004892    -0.05200
C326        C  0.72351693  0.19029729  0.85124335    -0.05200
C327        C  0.73894442  0.22421084  0.83720511    -0.23300
C328        C  0.76984765  0.22276595  0.82163864     0.18900
C329        C  0.78475269  0.18644422  0.81792554     0.16100
C330        C  0.76871599  0.15234729  0.83027423    -0.18300
C331        C  0.81589863  0.18481135  0.80336127    -0.20200
C332        C  0.83244793  0.21885322  0.79455174    -0.12700
C333        C  0.81793660  0.25507381  0.79843115     0.03900
C334        C  0.78636683  0.25696537  0.81081267    -0.24900
H335        H  0.69995118  0.19258489  0.86465642     0.09000
H336        H  0.72694359  0.25168252  0.83987840     0.12600
H337        H  0.78035645  0.12508003  0.82470513     0.12500
H338        H  0.82774917  0.15725962  0.80030530     0.12300
H339        H  0.85676297  0.21696483  0.78478122     0.12900
H340        H  0.77515633  0.28492799  0.81404550     0.14800
C341        C  0.57244154  0.02960304  0.25197677    -0.05200
C342        C  0.58561248  0.99563360  0.23382084    -0.05200
C343        C  0.56709084  0.46372691  0.22421956    -0.23300
C344        C  0.53527331  0.46481661  0.23462085     0.18900
C345        C  0.52164325  0.49931140  0.25161957     0.16100
C346        C  0.54025672  0.03196719  0.25908515    -0.18300
C347        C  0.48996754  0.49981495  0.26298972    -0.20200
C348        C  0.47293856  0.46545963  0.26292848    -0.12700
C349        C  0.48727041  0.42982049  0.25169847     0.03900
C350        C  0.51749477  0.43107728  0.23183190    -0.24900
H351        H  0.61037537  0.99371553  0.22754971     0.09000
H352        H  0.57792183  0.43754749  0.21109890     0.12600
H353        H  0.53009218  0.05830416  0.27300743     0.12500
H354        H  0.47886101  0.02615071  0.27500996     0.12300
H355        H  0.44923878  0.46605252  0.27604811     0.12900
H356        H  0.52835996  0.40535802  0.21775201     0.14800
C357        C  0.57672415  0.25315429  0.27235244    -0.05200
C358        C  0.58570452  0.28545888  0.29910894    -0.05200
C359        C  0.56703533  0.31821258  0.30157307    -0.23300
C360        C  0.53881368  0.31960369  0.27737628     0.18900
C361        C  0.52943738  0.28801019  0.24951522     0.16100
C362        C  0.54856182  0.25478531  0.24691848    -0.18300
C363        C  0.50083761  0.29010795  0.22584243    -0.20200
C364        C  0.48185970  0.32307596  0.22980232    -0.12700
C365        C  0.49121121  0.35517282  0.25709687     0.03900
C366        C  0.51976448  0.35215606  0.28142147    -0.24900
H367        H  0.60729288  0.28542540  0.31870224     0.09000
H368        H  0.57458786  0.34238443  0.32288824     0.12600
H369        H  0.54125368  0.23012596  0.22628763     0.12500
H370        H  0.49289307  0.26599164  0.20482119     0.12300
H371        H  0.45959313  0.32250795  0.21243791     0.12900
H372        H  0.52726481  0.37568987  0.30384298     0.14800
C373        C  0.67045511  0.12326142  0.09917230    -0.05200
C374        C  0.65188106  0.09762851  0.07316790    -0.05200
C375        C  0.65814001  0.09017717  0.02419281    -0.23300
C376        C  0.68246669  0.10926565  0.99957264     0.18900
C377        C  0.70056220  0.13582316  0.02527588     0.16100
C378        C  0.69500640  0.14193519  0.07482295    -0.18300
C379        C  0.72417716  0.15583037  0.00118267    -0.20200
C380        C  0.72956347  0.15048137  0.95209436    -0.12700
C381        C  0.71165174  0.12467270  0.92434596     0.03900
C382        C  0.68900133  0.10255453  0.94996262    -0.24900
H383        H  0.63296071  0.08257304  0.09112643     0.09000
H384        H  0.64374027  0.06978044  0.00548189     0.12600
H385        H  0.70947275  0.16182080  0.09432060     0.12500
H386        H  0.73867923  0.17584152  0.02038569     0.12300
H387        H  0.74891958  0.16619074  0.93655973     0.12900
H388        H  0.67620992  0.08054504  0.93128339     0.14800
C389        C  0.73640551  0.03794371  0.32963024    -0.05200
C390        C  0.74289031  0.03299505  0.37886813    -0.05200
C391        C  0.76596532  0.00716763  0.39393974    -0.23300
C392        C  0.78186030  0.48466041  0.36002271     0.18900
C393        C  0.77573895  0.49013564  0.31036954     0.16100
C394        C  0.75373059  0.51757687  0.29538006    -0.18300
C395        C  0.79045157  0.46662021  0.27666803    -0.20200
C396        C  0.80826622  0.43528224  0.29222934    -0.12700
C397        C  0.81260406  0.42717588  0.34198241     0.03900
C398        C  0.80191261  0.45486672  0.37520697    -0.24900
H399        H  0.73000074  0.04907584  0.40565200     0.09000
H400        H  0.77025896  0.00341712  0.43217341     0.12600
H401        H  0.74873194  0.52140705  0.25733557     0.12500
H402        H  0.78635373  0.47067168  0.23841538     0.12300
H403        H  0.81670681  0.41542834  0.26528017     0.12900
H404        H  0.80691002  0.45209899  0.41314132     0.14800
C405        C  0.73968597  0.23301456  0.31109857    -0.05200
C406        C  0.76997232  0.22091375  0.32174292    -0.05200
C407        C  0.79256341  0.24810621  0.33372020    -0.23300
C408        C  0.78526536  0.28774947  0.33387210     0.18900
C409        C  0.75491956  0.29972393  0.32202647     0.16100
C410        C  0.73228757  0.27237764  0.31160071    -0.18300
C411        C  0.74738061  0.33887387  0.32133557    -0.20200
C412        C  0.76970425  0.36628561  0.33136199    -0.12700
C413        C  0.80072177  0.35562740  0.34211670     0.03900
C414        C  0.80761164  0.31562219  0.34548085    -0.24900
H415        H  0.77585628  0.19042582  0.32212101     0.09000
H416        H  0.81567500  0.23819144  0.34264093     0.12600
H417        H  0.70884618  0.28169189  0.30350461     0.12500
H418        H  0.72401631  0.34842486  0.31329319     0.12300
H419        H  0.76170536  0.39588615  0.33211070     0.12900
H420        H  0.83056811  0.30634735  0.35627408     0.14800
C421        C  0.59340710  0.11448845  0.73408108    -0.05200
C422        C  0.58511550  0.12156651  0.78273343    -0.05200
C423        C  0.60734353  0.12317914  0.81913191    -0.23300
C424        C  0.63877829  0.11762609  0.80835233     0.18900
C425        C  0.64749793  0.10964712  0.76027917     0.16100
C426        C  0.62495897  0.10702816  0.72400178    -0.18300
C427        C  0.67882124  0.10533250  0.74877652    -0.20200
C428        C  0.70120200  0.10854591  0.78432135    -0.12700
C429        C  0.69332096  0.11436941  0.83349439     0.03900
C430        C  0.66158029  0.12018951  0.84461888    -0.24900
H431        H  0.56115403  0.12675865  0.79251344     0.09000
H432        H  0.59990446  0.12919440  0.85568700     0.12600
H433        H  0.63242077  0.09931051  0.68812064     0.12500
H434        H  0.68615811  0.10000056  0.71198526     0.12300
H435        H  0.72524695  0.10568475  0.77342619     0.12900
H436        H  0.65435982  0.12792440  0.88057505     0.14800
C437        C  0.47913684  0.46112904  0.70504910    -0.05200
C438        C  0.50953608  0.45031391  0.69195123    -0.05200
C439        C  0.53400063  0.47657140  0.69480922    -0.23300
C440        C  0.52845652  0.01447259  0.70982386     0.18900
C441        C  0.49833311  0.02501965  0.72526573     0.16100
C442        C  0.47399583  0.99816337  0.72365808    -0.18300
C443        C  0.49274799  0.06284278  0.74002001    -0.20200
C444        C  0.51562458  0.09092449  0.73413808    -0.12700
C445        C  0.54454942  0.08218749  0.71209469     0.03900
C446        C  0.55188261  0.04268474  0.70629699    -0.24900
H447        H  0.51430603  0.42177364  0.67808269     0.09000
H448        H  0.55691908  0.46778571  0.68297521     0.12600
H449        H  0.45076999  0.00690809  0.73405807     0.12500
H450        H  0.47023041  0.07118905  0.75405536     0.12300
H451        H  0.50994820  0.11988752  0.74550963     0.12900
H452        H  0.57474120  0.03466925  0.69330219     0.14800
C453        C  0.46328589  0.25127841  0.67522257    -0.05200
C454        C  0.45417501  0.21851103  0.65000195    -0.05200
C455        C  0.47448023  0.18740349  0.64483691    -0.23300
C456        C  0.50372252  0.18826158  0.66632001     0.18900
C457        C  0.51290791  0.22097374  0.69236982     0.16100
C458        C  0.49286131  0.25286381  0.69560031    -0.18300
C459        C  0.54170382  0.22084637  0.71530188    -0.20200
C460        C  0.56024306  0.18756763  0.71534638    -0.12700
C461        C  0.55042693  0.15380726  0.69192214     0.03900
C462        C  0.52326683  0.15611867  0.66397116    -0.24900
H463        H  0.43157652  0.21741758  0.63340898     0.09000
H464        H  0.46708231  0.16237623  0.62496355     0.12600
H465        H  0.49986479  0.27845845  0.71474861     0.12500
H466        H  0.54944181  0.24603430  0.73452685     0.12300
H467        H  0.58205431  0.18852619  0.73408358     0.12900
H468        H  0.51591740  0.13116198  0.64388741     0.14800
C469        C  0.62452833  0.13382300  0.47243112    -0.05200
C470        C  0.63760566  0.16147331  0.50287273    -0.05200
C471        C  0.63052226  0.16160762  0.55235177    -0.23300
C472        C  0.60974515  0.13450492  0.57241705     0.18900
C473        C  0.59642022  0.10676441  0.54220175     0.16100
C474        C  0.60416789  0.10619080  0.49270405    -0.18300
C475        C  0.57461398  0.08094930  0.56155240    -0.20200
C476        C  0.56583428  0.08260164  0.61011295    -0.12700
C477        C  0.57971625  0.10886920  0.64218117     0.03900
C478        C  0.60140734  0.13538112  0.62176755    -0.24900
H479        H  0.65354125  0.18293332  0.48841976     0.09000
H480        H  0.64100189  0.18325060  0.57479418     0.16200
H481        H  0.59368349  0.08489830  0.46972257     0.12500
H482        H  0.56332090  0.06031242  0.53858774     0.12300
H483        H  0.54672697  0.06438015  0.62092437     0.12900
H484        H  0.61111911  0.15755789  0.64426551     0.14800
C485        C  0.94139738  0.37183204  0.20100496    -0.05200
C486        C  0.92028174  0.34124257  0.19399004    -0.05200
C487        C  0.89459196  0.33597803  0.22421969    -0.23300
C488        C  0.88962678  0.36051761  0.26315385     0.18900
C489        C  0.91214152  0.38852856  0.27385629     0.16100
C490        C  0.93835708  0.39312544  0.24385433    -0.18300
C491        C  0.90724145  0.41301755  0.31284282    -0.20200
C492        C  0.87970041  0.41100271  0.33943243    -0.12700
C493        C  0.85647185  0.38365391  0.32899753     0.03900
C494        C  0.86202787  0.35831028  0.29034004    -0.24900
H495        H  0.92253869  0.32296415  0.16279071     0.09000
H496        H  0.87799060  0.31364830  0.21596643     0.12600
H497        H  0.95545102  0.41433799  0.25340732     0.12500
H498        H  0.92416537  0.43481593  0.32164460     0.12300
H499        H  0.87609019  0.43151629  0.36809585     0.12900
H500        H  0.84448359  0.33835255  0.27894916     0.14800
C501        C  0.98463689  0.34216366  0.15589374    -0.05200
C502        C  0.98346888  0.31949206  0.11382561    -0.05200
C503        C  0.00283285  0.28765722  0.10785045    -0.23300
C504        C  0.02275762  0.27600968  0.14464351     0.18900
C505        C  0.02190676  0.29523464  0.18920386     0.16100
C506        C  0.00266829  0.32788944  0.19473696    -0.18300
C507        C  0.04086801  0.28186500  0.22689489    -0.20200
C508        C  0.06105270  0.25054874  0.21977459    -0.12700
C509        C  0.06299721  0.23280373  0.17462252     0.03900
C510        C  0.04355243  0.24541266  0.13739419    -0.24900
H511        H  0.96768710  0.32585827  0.08480378     0.09000
H512        H  0.00220645  0.27211498  0.07423469     0.12600
H513        H  0.00269748  0.34336393  0.22843350     0.12500
H514        H  0.04042333  0.29593805  0.26152763     0.12300
H515        H  0.07596904  0.24111055  0.24889926     0.12900
H516        H  0.04473533  0.23141480  0.10268689     0.14800
C517        C  0.07535447  0.01368859  0.16290537    -0.05200
C518        C  0.08843635  0.97705439  0.15492869    -0.05200
C519        C  0.07027181  0.44383174  0.15740409    -0.23300
C520        C  0.03843147  0.44657822  0.16688099     0.18900
C521        C  0.02484627  0.48315354  0.17484965     0.16100
C522        C  0.04352059  0.01657622  0.17378560    -0.18300
C523        C  0.99269910  0.48572220  0.18145298    -0.20200
C524        C  0.97423344  0.45259924  0.17881816    -0.12700
C525        C  0.98737812  0.41548844  0.17202981     0.03900
C526        C  0.01994701  0.41333332  0.16619715    -0.24900
H527        H  0.11290384  0.97407503  0.14671629     0.09000
H528        H  0.08106077  0.41602579  0.15086923     0.12600
H529        H  0.03314927  0.04477940  0.17933838     0.12500
H530        H  0.98166944  0.01357002  0.18667517     0.12300
H531        H  0.94931570  0.45604278  0.18085577     0.12900
H532        H  0.03122098  0.38641571  0.15729990     0.14800
C533        C  0.95047084  0.39219805  0.11266854    -0.05200
C534        C  0.91805785  0.39558190  0.10673554    -0.05200
C535        C  0.90520658  0.39739174  0.06075951    -0.23300
C536        C  0.92441437  0.39764310  0.01987827     0.18900
C537        C  0.95680876  0.40042494  0.02534691     0.16100
C538        C  0.96949934  0.39884481  0.07156572    -0.18300
C539        C  0.97610792  0.40214679  0.98440852    -0.20200
C540        C  0.96346891  0.39876576  0.93852274    -0.12700
C541        C  0.93153947  0.39335741  0.93327318     0.03900
C542        C  0.91192913  0.39389827  0.97374353    -0.24900
H543        H  0.90221213  0.39548676  0.13707198     0.09000
H544        H  0.88023235  0.39726266  0.05719609     0.12600
H545        H  0.99446882  0.39868793  0.07521403     0.12500
H546        H  0.00098925  0.40470404  0.98796190     0.12300
H547        H  0.97868857  0.39891525  0.90723034     0.12900
H548        H  0.88716463  0.39043499  0.96931566     0.14800
C549        C  0.96599666  0.88057884  0.16114811    -0.02500
C550        C  0.56762249  0.61448612  0.69512956    -0.02500
Zn551      Zn  0.61864745  0.63997993  0.23640793     1.49700
Zn552      Zn  0.69201980  0.63304343  0.25365360     1.49400
Zn553      Zn  0.64988448  0.67961635  0.32907464     1.49100
Zn554      Zn  0.64476268  0.59055182  0.32757679     1.49500
O555        O  0.65121242  0.63591670  0.28602035    -1.84100
O556        O  0.63744842  0.63386200  0.16804327    -0.74700
O557        O  0.71895565  0.67830941  0.27197880    -0.74600
O558        O  0.61682070  0.71590286  0.30716412    -0.74100
O559        O  0.68823315  0.62952397  0.18015741    -0.74800
O560        O  0.59412018  0.69122713  0.24289728    -0.74300
O561        O  0.68983186  0.70844008  0.32647290    -0.74900
O562        O  0.62956552  0.60310406  0.39573386    -0.74300
O563        O  0.71599445  0.58704364  0.27860689    -0.75100
O564        O  0.64119542  0.66529568  0.39936437    -0.74500
O565        O  0.68552402  0.56292881  0.33682614    -0.74900
O566        O  0.61412715  0.55542738  0.29548382    -0.74800
O567        O  0.58950210  0.59437332  0.24333283    -0.74600
C568        C  0.66505231  0.62943951  0.15183135     0.77200
C569        C  0.71495739  0.70498107  0.30261130     0.77600
C570        C  0.59676284  0.71808070  0.27383538     0.76600
C571        C  0.63206032  0.63405234  0.41980355     0.77000
C572        C  0.71127408  0.56391750  0.31406785     0.78100
C573        C  0.59283515  0.56170818  0.26467845     0.77200
C574        C  0.72056448  0.61758502  0.86999322    -0.02500
Zn575      Zn  0.92506058  0.86235756  0.71384507     1.49700
Zn576      Zn  0.89746613  0.91909081  0.79099442     1.49400
Zn577      Zn  0.85015706  0.86584070  0.73796592     1.49100
Zn578      Zn  0.89804406  0.82848666  0.81232086     1.49500
O579        O  0.89250158  0.86839121  0.76321437    -1.84100
O580        O  0.95283515  0.91034781  0.70890115    -0.74700
O581        O  0.85653218  0.94574553  0.80327871    -0.74600
O582        O  0.85279491  0.86707617  0.66462558    -0.74100
O583        O  0.92445787  0.95317865  0.74910798    -0.74800
O584        O  0.90334385  0.85912056  0.65014583    -0.74300
O585        O  0.82293500  0.91015322  0.76355417    -0.74900
O586        O  0.86094286  0.79369381  0.81696897    -0.74300
O587        O  0.91796293  0.91393977  0.85512279    -0.75100
O588        O  0.82957892  0.81516440  0.75904963    -0.74500
O589        O  0.90936191  0.85226313  0.87595556    -0.74900
O590        O  0.93194554  0.79144817  0.79366536    -0.74800
O591        O  0.95150164  0.81306938  0.72411720    -0.74600
C592        C  0.94730446  0.94504371  0.72168346     0.77200
C593        C  0.82892560  0.93906847  0.79006133     0.77600
C594        C  0.87554138  0.86264850  0.63533681     0.76600
C595        C  0.83673506  0.79025180  0.79153732     0.77000
C596        C  0.91885526  0.88614464  0.88564371     0.78100
C597        C  0.95059989  0.78779066  0.75821053     0.77200
C598        C  0.82504169  0.88639980  0.35654631    -0.02500
C599        C  0.47068976  0.89147831  0.26622146    -0.02500
C600        C  0.07332133  0.61010031  0.73709375    -0.02500
Zn601      Zn  0.14918306  0.58501509  0.10277597     1.49700
Zn602      Zn  0.11664399  0.62632253  0.19219600     1.49400
Zn603      Zn  0.18997304  0.63847586  0.17128224     1.49100
Zn604      Zn  0.13962584  0.67598931  0.10110647     1.49500
O605        O  0.14892913  0.63138146  0.14199589    -1.84100
O606        O  0.11771237  0.54708146  0.12769445    -0.74700
O607        O  0.13674817  0.62074916  0.25711055    -0.74600
O608        O  0.21995930  0.59700575  0.15022751    -0.74100
O609        O  0.09009493  0.57813987  0.18306497    -0.74800
O610        O  0.19085995  0.55868489  0.10568425    -0.74300
O611        O  0.18661313  0.63357543  0.24413604    -0.74900
O612        O  0.17600100  0.71175227  0.09734607    -0.74300
O613        O  0.08929302  0.67416340  0.19436042    -0.75100
O614        O  0.21002904  0.68906149  0.15026415    -0.74500
O615        O  0.10312579  0.70594693  0.12715417    -0.74900
O616        O  0.13115428  0.66064672  0.03299470    -0.74800
O617        O  0.13839201  0.59697248  0.03282711    -0.74600
C618        C  0.09522131  0.54830416  0.15764956     0.77200
C619        C  0.16420858  0.62495305  0.27263890     0.77600
C620        C  0.21658075  0.56685825  0.12516612     0.76600
C621        C  0.20197482  0.71404365  0.11844969     0.77000
C622        C  0.08632385  0.70264114  0.16501011     0.78100
C623        C  0.13180025  0.62862904  0.01099798     0.77200
C624        C  0.22046523  0.62032853  0.54900487    -0.02500
Zn625      Zn  0.38080206  0.81961204  0.70455703     1.49700
Zn626      Zn  0.35815608  0.86832078  0.61381906     1.49400
Zn627      Zn  0.38457330  0.91296092  0.70665200     1.49100
Zn628      Zn  0.43036738  0.86569139  0.64136135     1.49500
O629        O  0.38811537  0.86681603  0.66674444    -1.84100
O630        O  0.34297879  0.79090440  0.68241151    -0.74700
O631        O  0.33473407  0.91964410  0.61348963    -0.74600
O632        O  0.37057465  0.89717399  0.77425680    -0.74100
O633        O  0.32789771  0.82327500  0.61699951    -0.74800
O634        O  0.37494030  0.83285169  0.77429869    -0.74300
O635        O  0.35446729  0.95089524  0.67579079    -0.74900
O636        O  0.45749413  0.90665963  0.66735736    -0.74300
O637        O  0.38099195  0.86377770  0.55021840    -0.75100
O638        O  0.42599600  0.94129914  0.71312613    -0.74500
O639        O  0.43052618  0.87057826  0.56990346    -0.74900
O640        O  0.45136319  0.81570435  0.65558399    -0.74800
O641        O  0.41623053  0.78181681  0.69715247    -0.74600
C642        C  0.32506773  0.79474277  0.64640425     0.77200
C643        C  0.33658822  0.94974419  0.63942116     0.77600
C644        C  0.36989964  0.86442383  0.79623716     0.76600
C645        C  0.45282985  0.93490833  0.69520913     0.77000
C646        C  0.40951750  0.86666003  0.53859713     0.78100
C647        C  0.44265070  0.78479052  0.67673786     0.77200
C648        C  0.32630893  0.88397136  0.07824633    -0.02500
C649        C  0.36372216  0.86279582  0.84867063    -0.05200
C650        C  0.37602122  0.83235058  0.87678464    -0.05200
C651        C  0.37116910  0.83097030  0.92661096    -0.23300
C652        C  0.35349044  0.85968925  0.94908780     0.18900
C653        C  0.34040727  0.88988646  0.92107338     0.16100
C654        C  0.34587508  0.89155902  0.87107354    -0.18300
C655        C  0.32169085  0.91752261  0.94344754    -0.20200
C656        C  0.31656219  0.91589810  0.99326084    -0.12700
C657        C  0.33116330  0.88747837  0.02264228     0.03900
C658        C  0.34868425  0.85858074  0.99911888    -0.24900
H659        H  0.38992671  0.80992544  0.86029739     0.09000
H660        H  0.38126937  0.80747155  0.94754968     0.12600
H661        H  0.33596847  0.91488379  0.84956436     0.12500
H662        H  0.31056054  0.94014019  0.92228183     0.12300
H663        H  0.30040605  0.93662941  0.00761962     0.12900
H664        H  0.35891832  0.83527685  0.02029753     0.14800
C665        C  0.23676913  0.65935621  0.56003549    -0.05200
C666        C  0.24143973  0.68904073  0.52491852    -0.05200
C667        C  0.25828210  0.72231734  0.53535249    -0.23300
C668        C  0.27005599  0.72775097  0.58158914     0.18900
C669        C  0.26328860  0.70030717  0.61835938     0.16100
C670        C  0.24606061  0.66713220  0.60773829    -0.18300
C671        C  0.27479952  0.70579928  0.66484777    -0.20200
C672        C  0.29397937  0.73726443  0.67425384    -0.12700
C673        C  0.30166830  0.76426284  0.63759040     0.03900
C674        C  0.28889403  0.75977766  0.59146923    -0.24900
H675        H  0.23209283  0.68721924  0.48907375     0.09000
H676        H  0.26231543  0.74369995  0.50699754     0.12600
H677        H  0.24139392  0.64606055  0.63620660     0.12500
H678        H  0.26974306  0.68512540  0.69361541     0.12300
H679        H  0.30332573  0.74003995  0.71013765     0.12900
H680        H  0.29467608  0.78020972  0.56273845     0.14800
C681        C  0.31861518  0.98483358  0.62594766    -0.05200
C682        C  0.33126587  0.02161616  0.63357550    -0.05200
C683        C  0.31567646  0.55507115  0.61827097    -0.23300
C684        C  0.28659620  0.55249452  0.59643361     0.18900
C685        C  0.27315735  0.51576294  0.59005147     0.16100
C686        C  0.28950161  0.98209224  0.60389110    -0.18300
C687        C  0.24363191  0.51338695  0.56990271    -0.20200
C688        C  0.22733414  0.54701482  0.55723508    -0.12700
C689        C  0.24021203  0.58417988  0.56328584     0.03900
C690        C  0.27074393  0.58611724  0.58129782    -0.24900
H691        H  0.35372566  0.02446631  0.65022127     0.09000
H692        H  0.32627781  0.58299353  0.62387460     0.12600
H693        H  0.27944680  0.95386143  0.59813259     0.12500
H694        H  0.23288162  0.48551142  0.56463615     0.12300
H695        H  0.20424985  0.54408947  0.54282723     0.12900
H696        H  0.28262122  0.61341692  0.58379783     0.14800
C697        C  0.17008235  0.61925354  0.32490331    -0.05200
C698        C  0.14536883  0.61108260  0.35687746    -0.05200
C699        C  0.15054278  0.60607618  0.40619795    -0.23300
C700        C  0.18048338  0.60958864  0.42465880     0.18900
C701        C  0.20562001  0.61672064  0.39293120     0.16100
C702        C  0.20032729  0.62139302  0.34324612    -0.18300
C703        C  0.23556905  0.61923573  0.41159189    -0.20200
C704        C  0.24014579  0.61797341  0.46145808    -0.12700
C705        C  0.21480457  0.61557307  0.49402250     0.03900
C706        C  0.18544459  0.60728500  0.47450376    -0.24900
H707        H  0.12188225  0.60885570  0.34385794     0.09000
H708        H  0.13099047  0.60039993  0.43004719     0.12600
H709        H  0.21969667  0.62711946  0.31904998     0.12500
H710        H  0.25535325  0.62337261  0.38775478     0.12300
H711        H  0.26343598  0.62135644  0.47491073     0.12900
H712        H  0.16604758  0.59963169  0.49756861     0.14800
C713        C  0.22323124  0.74598271  0.10436445    -0.05200
C714        C  0.21353701  0.77398721  0.07031486    -0.05200
C715        C  0.23318752  0.80387238  0.05564205    -0.23300
C716        C  0.26290573  0.80661585  0.07494647     0.18900
C717        C  0.27330944  0.77857189  0.10860130     0.16100
C718        C  0.25344131  0.74821372  0.12303520    -0.18300
C719        C  0.30318765  0.78186228  0.12765032    -0.20200
C720        C  0.32163920  0.81411205  0.11618349    -0.12700
C721        C  0.31036762  0.84403567  0.08573151     0.03900
C722        C  0.28174294  0.83809031  0.06262794    -0.24900
H723        H  0.19059541  0.77294120  0.05493552     0.09000
H724        H  0.22490757  0.82526137  0.02977963     0.12600
H725        H  0.26138892  0.72664206  0.14891525     0.12500
H726        H  0.31195088  0.76006746  0.15255015     0.12300
H727        H  0.34421414  0.81570949  0.13244012     0.12900
H728        H  0.27289480  0.86010654  0.03804737     0.14800
C729        C  0.30467628  0.91619380  0.09879182    -0.05200
C730        C  0.27804066  0.90703977  0.12707556    -0.05200
C731        C  0.25638982  0.93507648  0.13916500    -0.23300
C732        C  0.26126582  0.97351903  0.12565620     0.18900
C733        C  0.28962259  0.98456405  0.10371940     0.16100
C734        C  0.31163743  0.95591807  0.09184941    -0.18300
C735        C  0.29469590  0.52384285  0.09239772    -0.20200
C736        C  0.27130891  0.55130352  0.10086142    -0.12700
C737        C  0.24253324  0.53962562  0.11999906     0.03900
C738        C  0.23791933  0.00090822  0.13324357    -0.24900
H739        H  0.27315484  0.87800063  0.13980904     0.09000
H740        H  0.23547456  0.92647043  0.15837279     0.12600
H741        H  0.33306833  0.96416886  0.07385660     0.12500
H742        H  0.31634500  0.53312783  0.07596793     0.12300
H743        H  0.27522704  0.58131937  0.09085788     0.12900
H744        H  0.21588062  0.99205593  0.14891705     0.14800
C745        C  0.10405057  0.61031882  0.70706842    -0.05200
C746        C  0.13081493  0.59114999  0.72492133    -0.05200
C747        C  0.15757935  0.58737180  0.69696435    -0.23300
C748        C  0.15935247  0.60446032  0.65112597     0.18900
C749        C  0.13362487  0.62498647  0.63295203     0.16100
C750        C  0.10545017  0.62482840  0.65906945    -0.18300
C751        C  0.13705019  0.64654869  0.59004155    -0.20200
C752        C  0.16547176  0.64688691  0.56526423    -0.12700
C753        C  0.18986264  0.62167965  0.57896351     0.03900
C754        C  0.18668207  0.60174538  0.62361819    -0.24900
H755        H  0.13097503  0.57741679  0.76022530     0.09000
H756        H  0.17716640  0.57162332  0.71172463     0.12600
H757        H  0.08500817  0.63746934  0.64273834     0.12500
H758        H  0.11814891  0.66424158  0.57658220     0.12300
H759        H  0.16791309  0.66549025  0.53367667     0.12900
H760        H  0.20584264  0.58524832  0.63833319     0.14800
C761        C  0.12479907  0.62875339  0.95900634    -0.05200
C762        C  0.13514403  0.65950302  0.92938709    -0.05200
C763        C  0.12762160  0.66111436  0.88053181    -0.23300
C764        C  0.10883957  0.63255761  0.86075770     0.18900
C765        C  0.09801672  0.60172787  0.89031044     0.16100
C766        C  0.10661983  0.59950954  0.93909098    -0.18300
C767        C  0.07796643  0.57441259  0.87095950    -0.20200
C768        C  0.06895681  0.57730351  0.82272859    -0.12700
C769        C  0.08099589  0.60660362  0.79168766     0.03900
C770        C  0.10044913  0.63467371  0.81205704    -0.24900
H771        H  0.14920355  0.68228959  0.94411063     0.09000
H772        H  0.13604763  0.68504973  0.85842870     0.12600
H773        H  0.09820094  0.57600167  0.96195537     0.12500
H774        H  0.06870630  0.55117991  0.89342030     0.12300
H775        H  0.05222964  0.55657865  0.81054433     0.12900
H776        H  0.10929537  0.65812612  0.78951609     0.14800
C777        C  0.43987407  0.89160265  0.23740342    -0.05200
C778        C  0.41033956  0.89462587  0.25986851    -0.05200
C779        C  0.38313708  0.89198698  0.23348460    -0.23300
C780        C  0.38433461  0.88969748  0.18332485     0.18900
C781        C  0.41324925  0.89142039  0.15943690     0.16100
C782        C  0.44075423  0.89186507  0.18639358    -0.18300
C783        C  0.41405966  0.89331905  0.10902274    -0.20200
C784        C  0.38658018  0.89252807  0.08266545    -0.12700
C785        C  0.35743237  0.88716969  0.10581685     0.03900
C786        C  0.35694820  0.88677421  0.15676895    -0.24900
H787        H  0.40755166  0.89964862  0.29791903     0.09000
H788        H  0.36105550  0.89278140  0.25236510     0.12600
H789        H  0.46296263  0.89220035  0.16782818     0.12500
H790        H  0.43595404  0.89614694  0.08988609     0.12300
H791        H  0.38881972  0.89628525  0.04413476     0.12900
H792        H  0.33500875  0.88424930  0.17585512     0.14800
C793        C  0.46493200  0.88986092  0.32166236    -0.05200
C794        C  0.47982638  0.91513652  0.35378934    -0.05200
C795        C  0.47327038  0.91392710  0.40304987    -0.23300
C796        C  0.45143579  0.88784010  0.42159608     0.18900
C797        C  0.43788101  0.86059355  0.39089634     0.16100
C798        C  0.44644664  0.86005948  0.34207615    -0.18300
C799        C  0.41498284  0.83550120  0.40909534    -0.20200
C800        C  0.40506784  0.83819922  0.45703196    -0.12700
C801        C  0.41884653  0.86487906  0.48774063     0.03900
C802        C  0.44249684  0.88905848  0.47014739    -0.24900
H803        H  0.49703943  0.93574562  0.34153057     0.09000
H804        H  0.48463647  0.93421625  0.42640724     0.12600
H805        H  0.43661201  0.83841444  0.31889761     0.12500
H806        H  0.40417661  0.81458551  0.38597383     0.12300
H807        H  0.38705845  0.81898814  0.47041523     0.12900
H808        H  0.45314222  0.90970749  0.49389072     0.14800
C809        C  0.05509543  0.57407157  0.71950283    -0.05200
C810        C  0.06843537  0.53673880  0.72487998    -0.05200
C811        C  0.05090399  0.50325074  0.71940570    -0.23300
C812        C  0.01943076  0.50595502  0.70855427     0.18900
C813        C  0.00646116  0.54260737  0.69765182     0.16100
C814        C  0.02482614  0.57607495  0.70037868    -0.18300
C815        C  0.97470356  0.54551469  0.68796084    -0.20200
C816        C  0.95562383  0.01308686  0.69342404    -0.12700
C817        C  0.96814368  0.97688088  0.70647265     0.03900
C818        C  0.00033651  0.97306843  0.71157321    -0.24900
H819        H  0.09185475  0.53316675  0.73750443     0.09000
H820        H  0.06149982  0.97537176  0.72695327     0.12600
H821        H  0.01450779  0.60355809  0.69053025     0.12500
H822        H  0.96427622  0.57331013  0.67936669     0.12300
H823        H  0.93084889  0.01652423  0.68912836     0.12900
H824        H  0.01010468  0.94527736  0.72207458     0.14800
C825        C  0.97041545  0.75245192  0.75679774    -0.05200
C826        C  0.95993172  0.71844986  0.78022907    -0.05200
C827        C  0.97780568  0.68470237  0.78028594    -0.23300
C828        C  0.00683973  0.68417855  0.75736524     0.18900
C829        C  0.01786647  0.71797968  0.73383413     0.16100
C830        C  0.99945617  0.75190653  0.73314767    -0.18300
C831        C  0.04748073  0.71744394  0.71272319    -0.20200
C832        C  0.06556903  0.68363526  0.71376758    -0.12700
C833        C  0.05405585  0.64852156  0.73388430     0.03900
C834        C  0.02503789  0.65037788  0.75804942    -0.24900
H835        H  0.93759202  0.71782786  0.79833681     0.09000
H836        H  0.96893074  0.65901037  0.79848976     0.12600
H837        H  0.00795442  0.77793641  0.71526735     0.12500
H838        H  0.05700585  0.74348753  0.69624718     0.12300
H839        H  0.08898569  0.68605569  0.70025488     0.12900
H840        H  0.01643301  0.62496611  0.77721263     0.14800
C841        C  0.82933489  0.88018568  0.41177870    -0.05200
C842        C  0.80369268  0.88355524  0.44360953    -0.05200
C843        C  0.80721482  0.88018241  0.49360280    -0.23300
C844        C  0.83627048  0.87172184  0.51323396     0.18900
C845        C  0.86155146  0.86469243  0.48196418     0.16100
C846        C  0.85780275  0.86798669  0.43194890    -0.18300
C847        C  0.89050826  0.85509411  0.50113504    -0.20200
C848        C  0.89471864  0.85392833  0.55089782    -0.12700
C849        C  0.87000861  0.86200096  0.58265417     0.03900
C850        C  0.84057364  0.87024611  0.56346552    -0.24900
H851        H  0.78090912  0.89023040  0.42970479     0.09000
H852        H  0.78726622  0.88462877  0.51687830     0.12600
H853        H  0.87743886  0.86087908  0.40931241     0.12500
H854        H  0.91010939  0.84926869  0.47762409     0.12300
H855        H  0.91756303  0.84708515  0.56446747     0.12900
H856        H  0.82122553  0.87622860  0.58742325     0.14800
C857        C  0.80356147  0.96557016  0.80600739    -0.05200
C858        C  0.77368088  0.96277182  0.78662571    -0.05200
C859        C  0.75027053  0.98881334  0.79986439    -0.23300
C860        C  0.75627271  0.51848392  0.83250287     0.18900
C861        C  0.78576076  0.52080509  0.85360369     0.16100
C862        C  0.80915190  0.99430898  0.84050073    -0.18300
C863        C  0.79152292  0.55017301  0.88661497    -0.20200
C864        C  0.76941710  0.57915661  0.89483996    -0.12700
C865        C  0.74111214  0.58012173  0.86955129     0.03900
C866        C  0.73373013  0.54686630  0.84252188    -0.24900
H867        H  0.76851847  0.94087382  0.76041338     0.09000
H868        H  0.72771462  0.98647100  0.78338038     0.12600
H869        H  0.83187688  0.99663554  0.85645629     0.12500
H870        H  0.81372505  0.55185909  0.90433072     0.12300
H871        H  0.77566916  0.60272851  0.91795828     0.12900
H872        H  0.71108308  0.54359673  0.82686566     0.14800
C873        C  0.73840610  0.65377236  0.85004939    -0.05200
C874        C  0.72351117  0.69029845  0.85124260    -0.05200
C875        C  0.73894131  0.72421110  0.83720858    -0.23300
C876        C  0.76984534  0.72276411  0.82164644     0.18900
C877        C  0.78474872  0.68644130  0.81793359     0.16100
C878        C  0.76870957  0.65234533  0.83027861    -0.18300
C879        C  0.81589534  0.68480644  0.80337310    -0.20200
C880        C  0.83244654  0.71884731  0.79456584    -0.12700
C881        C  0.81793668  0.75506897  0.79844405     0.03900
C882        C  0.78636661  0.75696246  0.81082330    -0.24900
H883        H  0.69994487  0.69258767  0.86465281     0.09000
H884        H  0.72694179  0.75168371  0.83988159     0.12600
H885        H  0.78034891  0.62507719  0.82471045     0.12500
H886        H  0.82774467  0.65725387  0.80031745     0.12300
H887        H  0.85676181  0.71695730  0.78479663     0.12900
H888        H  0.77515706  0.78492582  0.81405493     0.14800
C889        C  0.57243841  0.52960164  0.25198248    -0.05200
C890        C  0.58560615  0.49563629  0.23380973    -0.05200
C891        C  0.56709879  0.96372287  0.22423043    -0.23300
C892        C  0.53527929  0.96481504  0.23461597     0.18900
C893        C  0.52164622  0.99931311  0.25159886     0.16100
C894        C  0.54025506  0.53196378  0.25910766    -0.18300
C895        C  0.48996884  0.99981791  0.26295751    -0.20200
C896        C  0.47294071  0.96546164  0.26290255    -0.12700
C897        C  0.48727436  0.92982069  0.25168624     0.03900
C898        C  0.51750121  0.93107529  0.23182836    -0.24900
H899        H  0.61036787  0.49372031  0.22752503     0.09000
H900        H  0.57793224  0.93754055  0.21112310     0.12600
H901        H  0.53009303  0.55829800  0.27304213     0.12500
H902        H  0.47886192  0.52614548  0.27505400     0.12300
H903        H  0.44923939  0.96605629  0.27601500     0.12900
H904        H  0.52836877  0.90535442  0.21775705     0.14800
C905        C  0.57672064  0.75315174  0.27235774    -0.05200
C906        C  0.58570142  0.78545646  0.29911334    -0.05200
C907        C  0.56703297  0.81821062  0.30157535    -0.23300
C908        C  0.53881208  0.81960195  0.27737660     0.18900
C909        C  0.52943552  0.78800820  0.24951624     0.16100
C910        C  0.54855882  0.75478255  0.24692274    -0.18300
C911        C  0.50083704  0.79010700  0.22583990    -0.20200
C912        C  0.48186083  0.82307681  0.22979525    -0.12700
C913        C  0.49121247  0.85517342  0.25709012     0.03900
C914        C  0.51976407  0.85215523  0.28141879    -0.24900
H915        H  0.60728965  0.78542297  0.31870717     0.09000
H916        H  0.57458569  0.84238289  0.32288949     0.12600
H917        H  0.54125066  0.73012286  0.22629232     0.12500
H918        H  0.49289250  0.76599064  0.20481896     0.12300
H919        H  0.45959530  0.82251030  0.21242738     0.12900
H920        H  0.52726386  0.87568885  0.30384110     0.14800
C921        C  0.67043553  0.62327308  0.09916461    -0.05200
C922        C  0.65185971  0.59764296  0.07315910    -0.05200
C923        C  0.65811915  0.59019152  0.02418429    -0.23300
C924        C  0.68244839  0.60927674  0.99956640     0.18900
C925        C  0.70054456  0.63583288  0.02527065     0.16100
C926        C  0.69498776  0.64194550  0.07481671    -0.18300
C927        C  0.72416214  0.65583702  0.00118017    -0.20200
C928        C  0.72955138  0.65048521  0.95209351    -0.12700
C929        C  0.71163969  0.62467735  0.92434421     0.03900
C930        C  0.68898562  0.60256304  0.94995804    -0.24900
H931        H  0.63293837  0.58258880  0.09111682     0.09000
H932        H  0.64371864  0.56979624  0.00547229     0.12600
H933        H  0.70945520  0.66182922  0.09431551     0.12500
H934        H  0.73866443  0.67584715  0.02038432     0.12300
H935        H  0.74890975  0.66619168  0.93656093     0.12900
H936        H  0.67619368  0.58055455  0.93127795     0.14800
C937        C  0.73640799  0.53795461  0.32960522    -0.05200
C938        C  0.74290788  0.53302527  0.37884048    -0.05200
C939        C  0.76598497  0.50720047  0.39391032    -0.23300
C940        C  0.78185371  0.98464340  0.36004984     0.18900
C941        C  0.77574684  0.99013689  0.31039510     0.16100
C942        C  0.75374079  0.01758132  0.29540556    -0.18300
C943        C  0.79047135  0.96663597  0.27668996    -0.20200
C944        C  0.80828380  0.93529412  0.29224558    -0.12700
C945        C  0.81260939  0.92717035  0.34199748     0.03900
C946        C  0.80190518  0.95484747  0.37523086    -0.24900
H947        H  0.73002811  0.54911867  0.40562358     0.09000
H948        H  0.77029023  0.50346439  0.43214268     0.12600
H949        H  0.74875396  0.02142568  0.25735918     0.12500
H950        H  0.78638428  0.97070116  0.23843642     0.12300
H951        H  0.81673300  0.91545130  0.26529005     0.12900
H952        H  0.80689212  0.95206771  0.41316735     0.14800
C953        C  0.73968705  0.73301128  0.31108367    -0.05200
C954        C  0.76997045  0.72090768  0.32174311    -0.05200
C955        C  0.79256237  0.74809903  0.33372053    -0.23300
C956        C  0.78526802  0.78774356  0.33385843     0.18900
C957        C  0.75492570  0.79972058  0.32199572     0.16100
C958        C  0.73229276  0.77237576  0.31156876    -0.18300
C959        C  0.74739054  0.83887164  0.32129089    -0.20200
C960        C  0.76971385  0.86628182  0.33132524    -0.12700
C961        C  0.80072745  0.85562081  0.34210228     0.03900
C962        C  0.80761417  0.81561483  0.34547252    -0.24900
H963        H  0.77585108  0.69041869  0.32213369     0.09000
H964        H  0.81567132  0.73818232  0.34265427     0.12600
H965        H  0.70885370  0.78169189  0.30346060     0.12500
H966        H  0.72402899  0.84842471  0.31323356     0.12300
H967        H  0.76171647  0.89588310  0.33206339     0.12900
H968        H  0.83056772  0.80633826  0.35627834     0.14800
C969        C  0.59340327  0.61449581  0.73407251    -0.05200
C970        C  0.58511105  0.62158436  0.78272199    -0.05200
C971        C  0.60733812  0.62319851  0.81912145    -0.23300
C972        C  0.63877223  0.61763585  0.80834569     0.18900
C973        C  0.64749237  0.60964705  0.76027550     0.16100
C974        C  0.62495426  0.60702698  0.72399731    -0.18300
C975        C  0.67881547  0.60532472  0.74877621    -0.20200
C976        C  0.70119551  0.60854054  0.78432169    -0.12700
C977        C  0.69331338  0.61437093  0.83349278     0.03900
C978        C  0.66157319  0.62019940  0.84461332    -0.24900
H979        H  0.56114999  0.62678290  0.79249882     0.09000
H980        H  0.59989884  0.62922185  0.85567412     0.12600
H981        H  0.63241587  0.59930136  0.68811874     0.12500
H982        H  0.68615281  0.59998589  0.71198685     0.12300
H983        H  0.72524059  0.60567501  0.77342898     0.12900
H984        H  0.65435259  0.62794163  0.88056676     0.14800
C985        C  0.47913283  0.96112872  0.70502397    -0.05200
C986        C  0.50953169  0.95031491  0.69192187    -0.05200
C987        C  0.53399694  0.97657123  0.69478455    -0.23300
C988        C  0.52845877  0.51447480  0.70983932     0.18900
C989        C  0.49833546  0.52502214  0.72528138     0.16100
C990        C  0.47399903  0.49816474  0.72367902    -0.18300
C991        C  0.49274910  0.56284698  0.74002778    -0.20200
C992        C  0.51562402  0.59092950  0.73413646    -0.12700
C993        C  0.54454799  0.58219120  0.71209125     0.03900
C994        C  0.55188301  0.54268829  0.70630176    -0.24900
H995        H  0.51430118  0.92177601  0.67804880     0.09000
H996        H  0.55691520  0.96778597  0.68294913     0.12600
H997        H  0.45077284  0.50690997  0.73407661     0.12500
H998        H  0.47023173  0.57119367  0.75406345     0.12300
H999        H  0.50994699  0.61989386  0.74550235     0.12900
H1000       H  0.57474138  0.53467265  0.69330649     0.14800
C1001       C  0.46327674  0.75127103  0.67520802    -0.05200
C1002       C  0.45416471  0.71850070  0.64999399    -0.05200
C1003       C  0.47447115  0.68739419  0.64482783    -0.23300
C1004       C  0.50371571  0.68825658  0.66630365     0.18900
C1005       C  0.51290203  0.72097217  0.69234606     0.16100
C1006       C  0.49285425  0.75286065  0.69557724    -0.18300
C1007       C  0.54170015  0.72085005  0.71527102    -0.20200
C1008       C  0.56024058  0.68757262  0.71531839    -0.12700
C1009       C  0.55042323  0.65380837  0.69190424     0.03900
C1010       C  0.52326144  0.65611473  0.66395642    -0.24900
H1011       H  0.43156450  0.71740413  0.63340700     0.09000
H1012       H  0.46707247  0.66236446  0.62496004     0.12600
H1013       H  0.49985854  0.77845757  0.71471997     0.12500
H1014       H  0.54943883  0.74604103  0.73448934     0.12300
H1015       H  0.58205340  0.68853485  0.73405058     0.12900
H1016       H  0.51591161  0.63115501  0.64387883     0.14800
C1017       C  0.62452738  0.63381829  0.47242470    -0.05200
C1018       C  0.63760529  0.66146774  0.50286663    -0.05200
C1019       C  0.63052227  0.66160147  0.55234542    -0.23300
C1020       C  0.60974488  0.63449913  0.57241031     0.18900
C1021       C  0.59641949  0.60675874  0.54219532     0.16100
C1022       C  0.60416677  0.60618579  0.49269728    -0.18300
C1023       C  0.57461352  0.58094334  0.56154705    -0.20200
C1024       C  0.56583384  0.58259645  0.61010792    -0.12700
C1025       C  0.57971493  0.60886621  0.64217415     0.03900
C1026       C  0.60140691  0.63537642  0.62176021    -0.24900
H1027       H  0.65354107  0.68292771  0.48841399     0.09000
H1028       H  0.64100228  0.68324411  0.57478802     0.16200
H1029       H  0.59368207  0.58489377  0.46971543     0.12500
H1030       H  0.56332071  0.56030572  0.53858303     0.12300
H1031       H  0.54672744  0.56437413  0.62092159     0.12900
H1032       H  0.61111878  0.65755362  0.64425745     0.14800
C1033       C  0.94140352  0.87183942  0.20100698    -0.05200
C1034       C  0.92029140  0.84124584  0.19399406    -0.05200
C1035       C  0.89460252  0.83597754  0.22422404    -0.23300
C1036       C  0.88963498  0.86051707  0.26315735     0.18900
C1037       C  0.91214659  0.88853214  0.27385893     0.16100
C1038       C  0.93836082  0.89313429  0.24385501    -0.18300
C1039       C  0.90724489  0.91301869  0.31284758    -0.20200
C1040       C  0.87970465  0.91099802  0.33943903    -0.12700
C1041       C  0.85647767  0.88364803  0.32900068     0.03900
C1042       C  0.86203636  0.85830544  0.29034319    -0.24900
H1043       H  0.92255024  0.82296649  0.16279588     0.09000
H1044       H  0.87800377  0.81364465  0.21597187     0.12600
H1045       H  0.95545192  0.91435097  0.25340598     0.12500
H1046       H  0.92416686  0.93481918  0.32165009     0.12300
H1047       H  0.87609309  0.93150908  0.36810484     0.12900
H1048       H  0.84449454  0.83834452  0.27895231     0.14800
C1049       C  0.98464454  0.84217269  0.15589948    -0.05200
C1050       C  0.98347661  0.81949838  0.11383384    -0.05200
C1051       C  0.00283897  0.78766155  0.10786348    -0.23300
C1052       C  0.02276400  0.77601679  0.14465748     0.18900
C1053       C  0.02191537  0.79524671  0.18921441     0.16100
C1054       C  0.00267610  0.82790117  0.19474442    -0.18300
C1055       C  0.04087950  0.78188209  0.22690489    -0.20200
C1056       C  0.06106349  0.75056442  0.21978763    -0.12700
C1057       C  0.06300359  0.73281248  0.17463956     0.03900
C1058       C  0.04355715  0.74541770  0.13741175    -0.24900
H1059       H  0.96769538  0.82586315  0.08481083     0.09000
H1060       H  0.00221157  0.77211603  0.07425035     0.12600
H1061       H  0.00270538  0.84337815  0.22843914     0.12500
H1062       H  0.04043737  0.79595977  0.26153460     0.12300
H1063       H  0.07598191  0.74112963  0.24891139     0.12900
H1064       H  0.04473757  0.73141524  0.10270726     0.14800
C1065       C  0.07534938  0.51368153  0.16289740    -0.05200
C1066       C  0.08842968  0.47704860  0.15490403    -0.05200
C1067       C  0.07027843  0.94383797  0.15743328    -0.23300
C1068       C  0.03843665  0.94658651  0.16689736     0.18900
C1069       C  0.02485042  0.98316291  0.17485422     0.16100
C1070       C  0.04351639  0.51656702  0.17378509    -0.18300
C1071       C  0.99270246  0.98573245  0.18144817    -0.20200
C1072       C  0.97423701  0.95260913  0.17881343    -0.12700
C1073       C  0.98738253  0.91549798  0.17203179     0.03900
C1074       C  0.01995212  0.91334217  0.16621036    -0.24900
H1075       H  0.11289610  0.47407021  0.14668350     0.09000
H1076       H  0.08106830  0.91603079  0.15090980     0.12600
H1077       H  0.03314561  0.54476900  0.17934887     0.12500
H1078       H  0.98166662  0.51355908  0.18668763     0.12300
H1079       H  0.94931915  0.95605251  0.18084502     0.12900
H1080       H  0.03122752  0.88642448  0.15731899     0.14800
C1081       C  0.95047642  0.89220233  0.11266891    -0.05200
C1082       C  0.91806300  0.89557795  0.10673420    -0.05200
C1083       C  0.90521207  0.89738069  0.06075764    -0.23300
C1084       C  0.92442012  0.89763567  0.01987677     0.18900
C1085       C  0.95681390  0.90042729  0.02534602     0.16100
C1086       C  0.96950444  0.89885112  0.07156572    -0.18300
C1087       C  0.97611258  0.90215599  0.98440722    -0.20200
C1088       C  0.96347421  0.89877249  0.93852088    -0.12700
C1089       C  0.93154589  0.89335343  0.93327073     0.03900
C1090       C  0.91193578  0.89388658  0.97374178    -0.24900
H1091       H  0.90221672  0.89548099  0.13706984     0.09000
H1092       H  0.88023787  0.89724455  0.05719368     0.12600
H1093       H  0.99447392  0.89870049  0.07521490     0.12500
H1094       H  0.00099336  0.90472157  0.98796065     0.12300
H1095       H  0.97869386  0.89892850  0.90722836     0.12900
H1096       H  0.88717189  0.89041567  0.96931405     0.14800
loop_ 
_geom_bond_atom_site_label_1 
_geom_bond_atom_site_label_2 
_geom_bond_distance 
_geom_bond_site_symmetry_2 
_ccdc_geom_bond_type 
C1          C485   1.552       .  S
C1          C501   1.558       .  S
C1          C525   1.557       .  S
C1          C533   1.554       .  S
C2          C421   1.558       .  S
C2          C445   1.563       .  S
C2          C461   1.548       .  S
C2          C477   1.569       .  S
Zn3           O7   1.979       .  S
Zn3           O8   2.069       .  S
Zn3          O12   2.070       .  S
Zn3          O19   2.026       .  S
Zn4           O7   1.973       .  S
Zn4           O9   2.027       .  S
Zn4          O11   2.052       .  S
Zn4          O15   2.011       .  S
Zn5           O7   1.941       .  S
Zn5          O10   1.990       .  S
Zn5          O13   1.995       .  S
Zn5          O16   2.035       .  S
Zn6           O7   1.950       .  S
Zn6          O14   2.047       .  S
Zn6          O17   2.016       .  S
Zn6          O18   2.021       .  S
O8           C20   1.279       .  A
O9           C21   1.274       .  A
O10          C22   1.274       .  A
O11          C20   1.278       .  A
O12          C22   1.280       .  A
O13          C21   1.272       .  A
O14          C23   1.275       .  A
O15          C24   1.273       .  A
O16          C23   1.274       .  A
O17          C24   1.273       .  A
O18          C25   1.276       .  A
O19          C25   1.275       .  A
C20         C373   1.495       .  S
C21         C405   1.467       .  S
C22         C357   1.487       .  S
C23         C469   1.492       .  S
C24         C389   1.469       .  S
C25         C341   1.468       .  S
C26         C317   1.567       .  S
C26         C325   1.562       .  S
C26         C381   1.575       .  S
C26         C429   1.564       .  S
Zn27         O31   1.966       .  S
Zn27         O32   2.052       .  S
Zn27         O36   2.012       .  S
Zn27         O43   2.065       .  S
Zn28         O31   1.939       .  S
Zn28         O33   2.019       .  S
Zn28         O35   2.009       .  S
Zn28         O39   1.999       .  S
Zn29         O31   1.966       .  S
Zn29         O34   2.035       .  S
Zn29         O37   2.059       .  S
Zn29         O40   2.041       .  S
Zn30         O31   1.938       .  S
Zn30         O38   2.008       .  S
Zn30         O41   2.023       .  S
Zn30         O42   2.011       .  S
O32          C44   1.277       .  A
O33          C45   1.273       .  A
O34          C46   1.279       .  A
O35          C44   1.273       .  A
O36          C46   1.277       .  A
O37          C45   1.279       .  A
O38          C47   1.273       .  A
O39          C48   1.271       .  A
O40          C47   1.276       .  A
O41          C48   1.276       .  A
O42          C49   1.273       .  A
O43          C49   1.277       .  A
C44         C269   1.477       .  S
C45         C309   1.494       .  S
C46         C301   1.483       .  S
C47         C333   1.473       .  S
C48         C541   1.460       .  S
C49         C277   1.490       .  S
C50         C293   1.556       .  S
C50         C397   1.555       .  S
C50         C413   1.557       .  S
C50         C493   1.554       .  S
C51         C229   1.558       .  S
C51         C245   1.555       .  S
C51         C349   1.554       .  S
C51         C365   1.556       .  S
C52         C197   1.560       .  S
C52         C221   1.555       .  S
C52         C261   1.562       .  S
C52         C285   1.566       .  S
Zn53         O57   1.951       .  S
Zn53         O58   2.002       .  S
Zn53         O62   2.015       .  S
Zn53         O69   2.035       .  S
Zn54         O57   1.967       .  S
Zn54         O59   2.012       .  S
Zn54         O61   2.045       .  S
Zn54         O65   2.030       .  S
Zn55         O57   1.974       .  S
Zn55         O60   2.018       .  S
Zn55         O63   2.028       .  S
Zn55         O66   2.028       .  S
Zn56         O57   1.942       .  S
Zn56         O64   2.003       .  S
Zn56         O67   2.017       .  S
Zn56         O68   2.007       .  S
O58          C70   1.273       .  A
O59          C71   1.275       .  A
O60          C72   1.271       .  A
O61          C70   1.276       .  A
O62          C72   1.274       .  A
O63          C71   1.276       .  A
O64          C73   1.273       .  A
O65          C74   1.274       .  A
O66          C73   1.274       .  A
O67          C74   1.274       .  A
O68          C75   1.272       .  A
O69          C75   1.275       .  A
C70         C517   1.479       .  S
C71         C149   1.483       .  S
C72         C189   1.468       .  S
C73         C165   1.483       .  S
C74         C509   1.473       .  S
C75         C213   1.476   1_554  S
C76         C117   1.560       .  S
C76         C141   1.558       .  S
C76         C157   1.558       .  S
C76         C205   1.555       .  S
Zn77         O81   1.950       .  S
Zn77         O82   2.019       .  S
Zn77         O86   2.008       .  S
Zn77         O93   2.019       .  S
Zn78         O81   1.965       .  S
Zn78         O83   2.039       .  S
Zn78         O85   2.036       .  S
Zn78         O89   2.020       .  S
Zn79         O81   1.961       .  S
Zn79         O84   2.031       .  S
Zn79         O87   2.028       .  S
Zn79         O90   2.053       .  S
Zn80         O81   1.950       .  S
Zn80         O88   1.989       .  S
Zn80         O91   1.986       .  S
Zn80         O92   1.984       .  S
O82          C94   1.274       .  A
O83          C95   1.277       .  A
O84          C96   1.277       .  A
O85          C94   1.275       .  A
O86          C96   1.275       .  A
O87          C95   1.277       .  A
O88          C97   1.269       .  A
O89          C98   1.274       .  A
O90          C97   1.276       .  A
O91          C98   1.270       .  A
O92          C99   1.267       .  A
O93          C99   1.272       .  A
C94         C125   1.487       .  S
C95         C133   1.482       .  S
C96         C101   1.476       .  S
C97         C437   1.485       .  S
C98         C253   1.465       .  S
C99         C453   1.460       .  S
C100        C109   1.557       .  S
C100        C173   1.555       .  S
C100        C181   1.562       .  S
C100        C237   1.557       .  S
C101        C102   1.405       .  A
C101        C106   1.405       .  A
C102        C103   1.395       .  A
C102        H111   1.083       .  S
C103        C104   1.401       .  A
C103        H112   1.084       .  S
C104        C110   1.401       .  A
C104        C105   1.411       .  A
C105        C107   1.398       .  A
C105        C106   1.404       .  A
C106        H113   1.084       .  S
C107        C108   1.397       .  A
C107        H114   1.084       .  S
C108        C109   1.416   1_556  A
C108        H115   1.077   1_556  S
C109        C110   1.415   1_554  A
C110        H116   1.085   1_556  S
C117        C118   1.417       .  A
C117        C122   1.416       .  A
C118        C119   1.398       .  A
C118        H127   1.079       .  S
C119        C120   1.399       .  A
C119        H128   1.084       .  S
C120        C126   1.408       .  A
C120        C121   1.411       .  A
C121        C123   1.402       .  A
C121        C122   1.406       .  A
C122        H129   1.083       .  S
C123        C124   1.399       .  A
C123        H130   1.084       .  S
C124        C125   1.407       .  A
C124        H131   1.083       .  S
C125        C126   1.408       .  A
C126        H132   1.084       .  S
C133        C134   1.405       .  A
C133        C138   1.407       .  A
C134        C683   1.398       .  A
C134        H143   1.083       .  S
C135        C136   1.403       .  A
C135        C682   1.398       .  A
C135        H144   1.084       .  S
C136        C142   1.407       .  A
C136        C137   1.412       .  A
C137        C139   1.400       .  A
C137        C686   1.409   1_545  A
C138        C685   1.409       .  A
C138        H145   1.084       .  S
C139        C140   1.398       .  A
C139        H146   1.083   1_545  S
C140        C141   1.415       .  A
C140        H147   1.083       .  S
C141        C142   1.416       .  A
C142        H148   1.079       .  S
C149        C150   1.407       .  A
C149        C154   1.408       .  A
C150        C151   1.396       .  A
C150        H159   1.083       .  S
C151        C152   1.401       .  A
C151        H160   1.084       .  S
C152        C158   1.402       .  A
C152        C153   1.410       .  A
C153        C155   1.401       .  A
C153        C154   1.405       .  A
C154        H161   1.084       .  S
C155        C156   1.399       .  A
C155        H162   1.084       .  S
C156        C157   1.414       .  A
C156        H163   1.083       .  S
C157        C158   1.415       .  A
C158        H164   1.080       .  S
C165        C166   1.407       .  A
C165        C170   1.411       .  A
C166        C167   1.392       .  A
C166        H175   1.083       .  S
C167        C168   1.399       .  A
C167        H176   1.084       .  S
C168        C174   1.397       .  A
C168        C169   1.410       .  A
C169        C171   1.404       .  A
C169        C170   1.408       .  A
C170        H177   1.084       .  S
C171        C172   1.403       .  A
C171        H178   1.083       .  S
C172        C173   1.413       .  A
C172        H179   1.080       .  S
C173        C174   1.414       .  A
C174        H180   1.084       .  S
C181        C182   1.420       .  A
C181        C186   1.416       .  A
C182        C183   1.387       .  A
C182        H191   1.080       .  S
C183        C184   1.391       .  A
C183        H192   1.084       .  S
C184        C190   1.397       .  A
C184        C185   1.413       .  A
C185        C186   1.411       .  A
C185        C735   1.406       .  A
C186        H193   1.084       .  S
C187        C188   1.404       .  A
C187        C733   1.406   1_545  A
C187        H194   1.083       .  S
C188        C189   1.404       .  A
C188        H195   1.083       .  S
C189        C738   1.397       .  A
C190        C737   1.397       .  A
C190        H196   1.085       .  S
C197        C198   1.419       .  A
C197        C202   1.416       .  A
C198        C199   1.392       .  A
C198        H207   1.081       .  S
C199        C200   1.394       .  A
C199        H208   1.084       .  S
C200        C206   1.403       .  A
C200        C201   1.409       .  A
C201        C203   1.401       .  A
C201        C202   1.410       .  A
C202        H209   1.083       .  S
C203        C204   1.401       .  A
C203        H210   1.084       .  S
C204        C205   1.415       .  A
C204        H211   1.083       .  S
C205        C206   1.413       .  A
C206        H212   1.082       .  S
C213        C214   1.404       .  A
C213        C218   1.405       .  A
C214        C215   1.396       .  A
C214        H223   1.083       .  S
C215        C216   1.401       .  A
C215        H224   1.084       .  S
C216        C222   1.402       .  A
C216        C217   1.412       .  A
C217        C219   1.400       .  A
C217        C218   1.407       .  A
C218        H225   1.084       .  S
C219        C220   1.398       .  A
C219        H226   1.084       .  S
C220        C221   1.416       .  A
C220        H227   1.079       .  S
C221        C222   1.413       .  A
C222        H228   1.084       .  S
C229        C230   1.418       .  A
C229        C234   1.414       .  A
C230        C231   1.393       .  A
C230        H239   1.078       .  S
C231        C232   1.395       .  A
C231        H240   1.084       .  S
C232        C238   1.403       .  A
C232        C233   1.409       .  A
C233        C235   1.398       .  A
C233        C234   1.409       .  A
C234        H241   1.084       .  S
C235        C236   1.400       .  A
C235        H242   1.084       .  S
C236        C237   1.419       .  A
C236        H243   1.078       .  S
C237        C238   1.413       .  A
C238        H244   1.084       .  S
C245        C246   1.418       .  A
C245        C250   1.413       .  A
C246        C247   1.392       .  A
C246        H255   1.080       .  S
C247        C248   1.396       .  A
C247        H256   1.084       .  S
C248        C254   1.398       .  A
C248        C249   1.412       .  A
C249        C251   1.402       .  A
C249        C250   1.400       .  A
C250        H257   1.084       .  S
C251        C252   1.397       .  A
C251        H258   1.084       .  S
C252        C253   1.403       .  A
C252        H259   1.083       .  S
C253        C254   1.401       .  A
C254        H260   1.085       .  S
C261        C262   1.418       .  A
C261        C266   1.416       .  A
C262        C263   1.396       .  A
C262        H271   1.079       .  S
C263        C264   1.397       .  A
C263        H820   1.084   1_545  S
C264        C265   1.413       .  A
C264        C818   1.407   1_545  A
C265        C267   1.403   1_455  A
C265        C266   1.408       .  A
C266        H273   1.080       .  S
C267        C816   1.399       .  A
C267        H274   1.084       .  S
C268        C269   1.405       .  A
C268        C815   1.399       .  A
C268        H275   1.083       .  S
C269        C270   1.404   1_655  A
C270        C812   1.407       .  A
C270        H276   1.084       .  S
H272        C811   1.084       .  S
C277        C278   1.408       .  A
C277        C282   1.410       .  A
C278        C279   1.396       .  A
C278        H287   1.083       .  S
C279        C280   1.400   1_655  A
C279        H288   1.084       .  S
C280        C286   1.406       .  A
C280        C281   1.411       .  A
C281        C283   1.401       .  A
C281        C282   1.414   1_455  A
C282        H289   1.084   1_655  S
C283        C284   1.403       .  A
C283        H290   1.084       .  S
C284        C285   1.417       .  A
C284        H291   1.078       .  S
C285        C286   1.417       .  A
C286        H292   1.084       .  S
C293        C294   1.415       .  A
C293        C298   1.415       .  A
C294        C295   1.399       .  A
C294        H303   1.083       .  S
C295        C296   1.400       .  A
C295        H304   1.083       .  S
C296        C302   1.407       .  A
C296        C297   1.410       .  A
C297        C299   1.400       .  A
C297        C298   1.400       .  A
C298        H305   1.080       .  S
C299        C300   1.393       .  A
C299        H306   1.084       .  S
C300        C301   1.407       .  A
C300        H307   1.083       .  S
C301        C302   1.409       .  A
C302        H308   1.084       .  S
C309        C310   1.406       .  A
C309        C314   1.413       .  A
C310        C311   1.401       .  A
C310        H319   1.083       .  S
C311        C860   1.405       .  A
C311        H320   1.083       .  S
C312        C318   1.409       .  A
C312        C313   1.409       .  A
C312        C859   1.405   1_545  A
C313        C315   1.402       .  A
C313        C862   1.410   1_545  A
C314        C861   1.410       .  A
C314        H321   1.084       .  S
C315        C316   1.401       .  A
C315        H322   1.083       .  S
C316        C317   1.415       .  A
C316        H323   1.081       .  S
C317        C318   1.421       .  A
C318        H324   1.080       .  S
C325        C326   1.416       .  A
C325        C330   1.415       .  A
C326        C327   1.398       .  A
C326        H335   1.083       .  S
C327        C328   1.399       .  A
C327        H336   1.083       .  S
C328        C334   1.409       .  A
C328        C329   1.414       .  A
C329        C331   1.402       .  A
C329        C330   1.405       .  A
C330        H337   1.079       .  S
C331        C332   1.396       .  A
C331        H338   1.084       .  S
C332        C333   1.403       .  A
C332        H339   1.084       .  S
C333        C334   1.404       .  A
C334        H340   1.084       .  S
C341        C342   1.402   1_545  A
C341        C346   1.404       .  A
C342        C891   1.395       .  A
C342        H351   1.084       .  S
C343        C344   1.401       .  A
C343        C890   1.395       .  A
C343        H352   1.084       .  S
C344        C350   1.402       .  A
C344        C345   1.414       .  A
C345        C347   1.401       .  A
C345        C894   1.407       .  A
C346        C893   1.407   1_545  A
C346        H353   1.084       .  S
C347        C348   1.399       .  A
C347        H902   1.083       .  S
C348        C349   1.415       .  A
C348        H355   1.083       .  S
C349        C350   1.412       .  A
C350        H356   1.081       .  S
H354        C895   1.083   1_545  S
C357        C358   1.408       .  A
C357        C362   1.412       .  A
C358        C359   1.390       .  A
C358        H367   1.083       .  S
C359        C360   1.397       .  A
C359        H368   1.084       .  S
C360        C366   1.397       .  A
C360        C361   1.410       .  A
C361        C363   1.405       .  A
C361        C362   1.415       .  A
C362        H369   1.084       .  S
C363        C364   1.406       .  A
C363        H370   1.083       .  S
C364        C365   1.415       .  A
C364        H371   1.080       .  S
C365        C366   1.413       .  A
C366        H372   1.084       .  S
C373        C374   1.409       .  A
C373        C378   1.405       .  A
C374        C375   1.410       .  A
C374        H383   1.083       .  S
C375        C376   1.408   1_554  A
C375        H384   1.083       .  S
C376        C382   1.424       .  A
C376        C377   1.413   1_556  A
C377        C379   1.393       .  A
C377        C378   1.411       .  A
C378        H385   1.084       .  S
C379        C380   1.394   1_554  A
C379        H386   1.084       .  S
C380        C381   1.423       .  A
C380        H387   1.081       .  S
C381        C382   1.421       .  A
C382        H388   1.083       .  S
C389        C390   1.404       .  A
C389        C942   1.400       .  A
C390        C391   1.398       .  A
C390        H399   1.083       .  S
C391        C940   1.403   1_545  A
C391        H400   1.084       .  S
C392        C398   1.405       .  A
C392        C393   1.414       .  A
C392        C939   1.403       .  A
C393        C395   1.395       .  A
C393        C394   1.401       .  A
C394        C937   1.400       .  A
C394        H401   1.085       .  S
C395        C396   1.392       .  A
C395        H402   1.084       .  S
C396        C397   1.417       .  A
C396        H403   1.082       .  S
C397        C398   1.413       .  A
C398        H404   1.078       .  S
C405        C406   1.404       .  A
C405        C410   1.397       .  A
C406        C407   1.403       .  A
C406        H415   1.083       .  S
C407        C408   1.405       .  A
C407        H416   1.083       .  S
C408        C414   1.409       .  A
C408        C409   1.413       .  A
C409        C411   1.391       .  A
C409        C410   1.397       .  A
C410        H417   1.085       .  S
C411        C412   1.387       .  A
C411        H418   1.084       .  S
C412        C413   1.421       .  A
C412        H419   1.079       .  S
C413        C414   1.415       .  A
C414        H420   1.084       .  S
C421        C422   1.417       .  A
C421        C426   1.412       .  A
C422        C423   1.401       .  A
C422        H431   1.082       .  S
C423        C424   1.400       .  A
C423        H432   1.083       .  S
C424        C430   1.418       .  A
C424        C425   1.413       .  A
C425        C427   1.395       .  A
C425        C426   1.410       .  A
C426        H433   1.080       .  S
C427        C428   1.393       .  A
C427        H434   1.084       .  S
C428        C429   1.419       .  A
C428        H435   1.083       .  S
C429        C430   1.416       .  A
C430        H436   1.079       .  S
C437        C438   1.409       .  A
C437        C990   1.404       .  A
C438        C439   1.399       .  A
C438        H447   1.083       .  S
C439        C988   1.400       .  A
C439        H448   1.084       .  S
C440        C446   1.409       .  A
C440        C441   1.414       .  A
C440        C987   1.400   1_545  A
C441        C443   1.396       .  A
C441        C442   1.406   1_545  A
C442        C985   1.404       .  A
C442        H449   1.084   1_565  S
C443        C444   1.394       .  A
C443        H450   1.084       .  S
C444        C445   1.419       .  A
C444        H451   1.081       .  S
C445        C446   1.412       .  A
C446        H452   1.084       .  S
C453        C454   1.400       .  A
C453        C458   1.403       .  A
C454        C455   1.393       .  A
C454        H463   1.084       .  S
C455        C456   1.402       .  A
C455        H464   1.084       .  S
C456        C462   1.395       .  A
C456        C457   1.411       .  A
C457        C459   1.402       .  A
C457        C458   1.403       .  A
C458        H465   1.084       .  S
C459        C460   1.399       .  A
C459        H466   1.083       .  S
C460        C461   1.413       .  A
C460        H467   1.081       .  S
C461        C462   1.413       .  A
C462        H468   1.084       .  S
C469        C470   1.408       .  A
C469        C474   1.407       .  A
C470        C471   1.403       .  A
C470        H479   1.083       .  S
C471        C472   1.404       .  A
C471        H480   1.084       .  S
C472        C478   1.412       .  A
C472        C473   1.411       .  A
C473        C475   1.397       .  A
C473        C474   1.410       .  A
C474        H481   1.084       .  S
C475        C476   1.397       .  A
C475        H482   1.084       .  S
C476        C477   1.419       .  A
C476        H483   1.077       .  S
C477        C478   1.420       .  A
C478        H484   1.084       .  S
C485        C486   1.415       .  A
C485        C490   1.412       .  A
C486        C487   1.395       .  A
C486        H495   1.083       .  S
C487        C488   1.398       .  A
C487        H496   1.084       .  S
C488        C494   1.406       .  A
C488        C489   1.411       .  A
C489        C491   1.398       .  A
C489        C490   1.406       .  A
C490        H497   1.080       .  S
C491        C492   1.395       .  A
C491        H498   1.084       .  S
C492        C493   1.416       .  A
C492        H499   1.083       .  S
C493        C494   1.413       .  A
C494        H500   1.079       .  S
C501        C502   1.417       .  A
C501        C506   1.416   1_655  A
C502        C503   1.391   1_655  A
C502        H511   1.079       .  S
C503        C504   1.394       .  A
C503        H512   1.084       .  S
C504        C510   1.401       .  A
C504        C505   1.412       .  A
C505        C507   1.405       .  A
C505        C506   1.409       .  A
C506        H513   1.084       .  S
C507        C508   1.403       .  A
C507        H514   1.083       .  S
C508        C509   1.405       .  A
C508        H515   1.083       .  S
C509        C510   1.400       .  A
C510        H516   1.085       .  S
C517        C518   1.405   1_545  A
C517        C522   1.408       .  A
C518       C1067   1.393       .  A
C518        H527   1.083       .  S
C519        C520   1.400       .  A
C519       C1066   1.393       .  A
C519        H528   1.084       .  S
C520        C526   1.402       .  A
C520        C521   1.412       .  A
C521        C523   1.401   1_455  A
C521       C1070   1.410       .  A
C522       C1069   1.410   1_545  A
C522        H529   1.084       .  S
C523        C524   1.401       .  A
C523       H1078   1.083       .  S
C524        C525   1.416       .  A
C524        H531   1.083       .  S
C525        C526   1.416   1_655  A
C526        H532   1.080       .  S
H530       C1071   1.083   1_545  S
C533        C534   1.415       .  A
C533        C538   1.415       .  A
C534        C535   1.395       .  A
C534        H543   1.079       .  S
C535        C536   1.398       .  A
C535        H544   1.084       .  S
C536        C542   1.401   1_554  A
C536        C537   1.412       .  A
C537        C539   1.402   1_554  A
C537        C538   1.399       .  A
C538        H545   1.084       .  S
C539        C540   1.396       .  A
C539        H546   1.084   1_655  S
C540        C541   1.401       .  A
C540        H547   1.083       .  S
C541        C542   1.400       .  A
C542        H548   1.085       .  S
C549       C1033   1.552       .  S
C549       C1049   1.558       .  S
C549       C1073   1.557       .  S
C549       C1081   1.554       .  S
C550        C969   1.558       .  S
C550        C993   1.563       .  S
C550       C1009   1.548       .  S
C550       C1025   1.569       .  S
Zn551       O555   1.979       .  S
Zn551       O556   2.069       .  S
Zn551       O560   2.070       .  S
Zn551       O567   2.026       .  S
Zn552       O555   1.973       .  S
Zn552       O557   2.027       .  S
Zn552       O559   2.052       .  S
Zn552       O563   2.011       .  S
Zn553       O555   1.941       .  S
Zn553       O558   1.990       .  S
Zn553       O561   1.995       .  S
Zn553       O564   2.035       .  S
Zn554       O555   1.950       .  S
Zn554       O562   2.047       .  S
Zn554       O565   2.016       .  S
Zn554       O566   2.021       .  S
O556        C568   1.279       .  A
O557        C569   1.274       .  A
O558        C570   1.274       .  A
O559        C568   1.278       .  A
O560        C570   1.280       .  A
O561        C569   1.272       .  A
O562        C571   1.275       .  A
O563        C572   1.273       .  A
O564        C571   1.274       .  A
O565        C572   1.273       .  A
O566        C573   1.276       .  A
O567        C573   1.275       .  A
C568        C921   1.495       .  S
C569        C953   1.467       .  S
C570        C905   1.487       .  S
C571       C1017   1.492       .  S
C572        C937   1.469       .  S
C573        C889   1.468       .  S
C574        C865   1.567       .  S
C574        C873   1.562       .  S
C574        C929   1.575       .  S
C574        C977   1.564       .  S
Zn575       O579   1.966       .  S
Zn575       O580   2.052       .  S
Zn575       O584   2.012       .  S
Zn575       O591   2.065       .  S
Zn576       O579   1.939       .  S
Zn576       O581   2.019       .  S
Zn576       O583   2.009       .  S
Zn576       O587   1.999       .  S
Zn577       O579   1.966       .  S
Zn577       O582   2.035       .  S
Zn577       O585   2.059       .  S
Zn577       O588   2.041       .  S
Zn578       O579   1.938       .  S
Zn578       O586   2.008       .  S
Zn578       O589   2.023       .  S
Zn578       O590   2.011       .  S
O580        C592   1.277       .  A
O581        C593   1.273       .  A
O582        C594   1.279       .  A
O583        C592   1.273       .  A
O584        C594   1.277       .  A
O585        C593   1.279       .  A
O586        C595   1.273       .  A
O587        C596   1.271       .  A
O588        C595   1.276       .  A
O589        C596   1.276       .  A
O590        C597   1.273       .  A
O591        C597   1.277       .  A
C592        C817   1.478       .  S
C593        C857   1.494       .  S
C594        C849   1.483       .  S
C595        C881   1.473       .  S
C596       C1089   1.460       .  S
C597        C825   1.490       .  S
C598        C841   1.556       .  S
C598        C945   1.555       .  S
C598        C961   1.557       .  S
C598       C1041   1.554       .  S
C599        C777   1.558       .  S
C599        C793   1.555       .  S
C599        C897   1.554       .  S
C599        C913   1.556       .  S
C600        C745   1.560       .  S
C600        C769   1.555       .  S
C600        C809   1.562       .  S
C600        C833   1.566       .  S
Zn601       O605   1.951       .  S
Zn601       O606   2.002       .  S
Zn601       O610   2.015       .  S
Zn601       O617   2.035       .  S
Zn602       O605   1.967       .  S
Zn602       O607   2.012       .  S
Zn602       O609   2.045       .  S
Zn602       O613   2.030       .  S
Zn603       O605   1.974       .  S
Zn603       O608   2.018       .  S
Zn603       O611   2.028       .  S
Zn603       O614   2.029       .  S
Zn604       O605   1.942       .  S
Zn604       O612   2.003       .  S
Zn604       O615   2.017       .  S
Zn604       O616   2.007       .  S
O606        C618   1.273       .  A
O607        C619   1.275       .  A
O608        C620   1.271       .  A
O609        C618   1.276       .  A
O610        C620   1.274       .  A
O611        C619   1.276       .  A
O612        C621   1.273       .  A
O613        C622   1.274       .  A
O614        C621   1.274       .  A
O615        C622   1.274       .  A
O616        C623   1.272       .  A
O617        C623   1.275       .  A
C618       C1065   1.479       .  S
C619        C697   1.483       .  S
C620        C737   1.468       .  S
C621        C713   1.483       .  S
C622       C1057   1.473       .  S
C623        C761   1.476   1_554  S
C624        C665   1.560       .  S
C624        C689   1.558       .  S
C624        C705   1.558       .  S
C624        C753   1.555       .  S
Zn625       O629   1.950       .  S
Zn625       O630   2.019       .  S
Zn625       O634   2.008       .  S
Zn625       O641   2.019       .  S
Zn626       O629   1.965       .  S
Zn626       O631   2.039       .  S
Zn626       O633   2.036       .  S
Zn626       O637   2.020       .  S
Zn627       O629   1.961       .  S
Zn627       O632   2.031       .  S
Zn627       O635   2.028       .  S
Zn627       O638   2.053       .  S
Zn628       O629   1.950       .  S
Zn628       O636   1.989       .  S
Zn628       O639   1.986       .  S
Zn628       O640   1.984       .  S
O630        C642   1.274       .  A
O631        C643   1.277       .  A
O632        C644   1.277       .  A
O633        C642   1.275       .  A
O634        C644   1.275       .  A
O635        C643   1.277       .  A
O636        C645   1.269       .  A
O637        C646   1.274       .  A
O638        C645   1.276       .  A
O639        C646   1.270       .  A
O640        C647   1.267       .  A
O641        C647   1.272       .  A
C642        C673   1.487       .  S
C643        C681   1.482       .  S
C644        C649   1.476       .  S
C645        C985   1.485       .  S
C646        C801   1.465       .  S
C647       C1001   1.460       .  S
C648        C657   1.557       .  S
C648        C721   1.555       .  S
C648        C729   1.562       .  S
C648        C785   1.557       .  S
C649        C650   1.405       .  A
C649        C654   1.405       .  A
C650        C651   1.395       .  A
C650        H659   1.083       .  S
C651        C652   1.401       .  A
C651        H660   1.084       .  S
C652        C658   1.401       .  A
C652        C653   1.411       .  A
C653        C655   1.398       .  A
C653        C654   1.404       .  A
C654        H661   1.084       .  S
C655        C656   1.397       .  A
C655        H662   1.084       .  S
C656        C657   1.416   1_556  A
C656        H663   1.077   1_556  S
C657        C658   1.415   1_554  A
C658        H664   1.085   1_556  S
C665        C666   1.417       .  A
C665        C670   1.416       .  A
C666        C667   1.398       .  A
C666        H675   1.079       .  S
C667        C668   1.399       .  A
C667        H676   1.084       .  S
C668        C674   1.408       .  A
C668        C669   1.411       .  A
C669        C671   1.402       .  A
C669        C670   1.406       .  A
C670        H677   1.083       .  S
C671        C672   1.399       .  A
C671        H678   1.084       .  S
C672        C673   1.407       .  A
C672        H679   1.083       .  S
C673        C674   1.408       .  A
C674        H680   1.084       .  S
C681        C682   1.405   1_565  A
C681        C686   1.407       .  A
C682        H691   1.083       .  S
C683        C684   1.403       .  A
C683        H692   1.084       .  S
C684        C690   1.407       .  A
C684        C685   1.412       .  A
C685        C687   1.400       .  A
C686        H693   1.084       .  S
C687        C688   1.398       .  A
C687        H694   1.083       .  S
C688        C689   1.415       .  A
C688        H695   1.083       .  S
C689        C690   1.416       .  A
C690        H696   1.079       .  S
C697        C698   1.407       .  A
C697        C702   1.408       .  A
C698        C699   1.396       .  A
C698        H707   1.083       .  S
C699        C700   1.401       .  A
C699        H708   1.084       .  S
C700        C706   1.402       .  A
C700        C701   1.410       .  A
C701        C703   1.401       .  A
C701        C702   1.405       .  A
C702        H709   1.084       .  S
C703        C704   1.399       .  A
C703        H710   1.084       .  S
C704        C705   1.414       .  A
C704        H711   1.083       .  S
C705        C706   1.415       .  A
C706        H712   1.080       .  S
C713        C714   1.407       .  A
C713        C718   1.411       .  A
C714        C715   1.392       .  A
C714        H723   1.083       .  S
C715        C716   1.399       .  A
C715        H724   1.084       .  S
C716        C722   1.397       .  A
C716        C717   1.410       .  A
C717        C719   1.404       .  A
C717        C718   1.408       .  A
C718        H725   1.084       .  S
C719        C720   1.403       .  A
C719        H726   1.083       .  S
C720        C721   1.413       .  A
C720        H727   1.080       .  S
C721        C722   1.414       .  A
C722        H728   1.084       .  S
C729        C730   1.420       .  A
C729        C734   1.416       .  A
C730        C731   1.387       .  A
C730        H739   1.080       .  S
C731        C732   1.391       .  A
C731        H740   1.084       .  S
C732        C738   1.397   1_565  A
C732        C733   1.413       .  A
C733        C734   1.411       .  A
C734        H741   1.084       .  S
C735        C736   1.404       .  A
C735        H742   1.083       .  S
C736        C737   1.404       .  A
C736        H743   1.083       .  S
C738        H744   1.085   1_545  S
C745        C746   1.419       .  A
C745        C750   1.416       .  A
C746        C747   1.392       .  A
C746        H755   1.081       .  S
C747        C748   1.394       .  A
C747        H756   1.084       .  S
C748        C754   1.403       .  A
C748        C749   1.409       .  A
C749        C751   1.401       .  A
C749        C750   1.410       .  A
C750        H757   1.083       .  S
C751        C752   1.401       .  A
C751        H758   1.084       .  S
C752        C753   1.415       .  A
C752        H759   1.083       .  S
C753        C754   1.413       .  A
C754        H760   1.082       .  S
C761        C762   1.404       .  A
C761        C766   1.405       .  A
C762        C763   1.396       .  A
C762        H771   1.083       .  S
C763        C764   1.401       .  A
C763        H772   1.084       .  S
C764        C770   1.402       .  A
C764        C765   1.412       .  A
C765        C767   1.400       .  A
C765        C766   1.407       .  A
C766        H773   1.084       .  S
C767        C768   1.398       .  A
C767        H774   1.084       .  S
C768        C769   1.416       .  A
C768        H775   1.079       .  S
C769        C770   1.413       .  A
C770        H776   1.084       .  S
C777        C778   1.418       .  A
C777        C782   1.414       .  A
C778        C779   1.393       .  A
C778        H787   1.078       .  S
C779        C780   1.395       .  A
C779        H788   1.084       .  S
C780        C786   1.403       .  A
C780        C781   1.409       .  A
C781        C783   1.398       .  A
C781        C782   1.409       .  A
C782        H789   1.084       .  S
C783        C784   1.400       .  A
C783        H790   1.084       .  S
C784        C785   1.419       .  A
C784        H791   1.078       .  S
C785        C786   1.413       .  A
C786        H792   1.084       .  S
C793        C794   1.418       .  A
C793        C798   1.413       .  A
C794        C795   1.392       .  A
C794        H803   1.080       .  S
C795        C796   1.396       .  A
C795        H804   1.084       .  S
C796        C802   1.398       .  A
C796        C797   1.412       .  A
C797        C799   1.402       .  A
C797        C798   1.400       .  A
C798        H805   1.084       .  S
C799        C800   1.397       .  A
C799        H806   1.084       .  S
C800        C801   1.403       .  A
C800        H807   1.083       .  S
C801        C802   1.401       .  A
C802        H808   1.085       .  S
C809        C810   1.418       .  A
C809        C814   1.416       .  A
C810        C811   1.396       .  A
C810        H819   1.079       .  S
C811        C812   1.397       .  A
C812        C813   1.413       .  A
C813        C815   1.403   1_455  A
C813        C814   1.408       .  A
C814        H821   1.080       .  S
C815        H822   1.084       .  S
C816        C817   1.405   1_545  A
C816        H823   1.083       .  S
C817        C818   1.404   1_655  A
C818        H824   1.084       .  S
C825        C826   1.408       .  A
C825        C830   1.410       .  A
C826        C827   1.396       .  A
C826        H835   1.083       .  S
C827        C828   1.400   1_655  A
C827        H836   1.084       .  S
C828        C834   1.406       .  A
C828        C829   1.411       .  A
C829        C831   1.401       .  A
C829        C830   1.414   1_455  A
C830        H837   1.084   1_655  S
C831        C832   1.403       .  A
C831        H838   1.084       .  S
C832        C833   1.417       .  A
C832        H839   1.078       .  S
C833        C834   1.417       .  A
C834        H840   1.084       .  S
C841        C842   1.415       .  A
C841        C846   1.415       .  A
C842        C843   1.399       .  A
C842        H851   1.083       .  S
C843        C844   1.400       .  A
C843        H852   1.083       .  S
C844        C850   1.407       .  A
C844        C845   1.410       .  A
C845        C847   1.400       .  A
C845        C846   1.400       .  A
C846        H853   1.080       .  S
C847        C848   1.393       .  A
C847        H854   1.084       .  S
C848        C849   1.407       .  A
C848        H855   1.083       .  S
C849        C850   1.409       .  A
C850        H856   1.084       .  S
C857        C858   1.406       .  A
C857        C862   1.413       .  A
C858        C859   1.401       .  A
C858        H867   1.083       .  S
C859        H868   1.083       .  S
C860        C866   1.409       .  A
C860        C861   1.409       .  A
C861        C863   1.402       .  A
C862        H869   1.084       .  S
C863        C864   1.401       .  A
C863        H870   1.083       .  S
C864        C865   1.415       .  A
C864        H871   1.081       .  S
C865        C866   1.421       .  A
C866        H872   1.080       .  S
C873        C874   1.416       .  A
C873        C878   1.415       .  A
C874        C875   1.398       .  A
C874        H883   1.083       .  S
C875        C876   1.399       .  A
C875        H884   1.083       .  S
C876        C882   1.409       .  A
C876        C877   1.414       .  A
C877        C879   1.402       .  A
C877        C878   1.405       .  A
C878        H885   1.079       .  S
C879        C880   1.396       .  A
C879        H886   1.084       .  S
C880        C881   1.403       .  A
C880        H887   1.084       .  S
C881        C882   1.404       .  A
C882        H888   1.084       .  S
C889        C890   1.402       .  A
C889        C894   1.404       .  A
C890        H899   1.084       .  S
C891        C892   1.401       .  A
C891        H900   1.084       .  S
C892        C898   1.402       .  A
C892        C893   1.414       .  A
C893        C895   1.401       .  A
C894        H901   1.084       .  S
C895        C896   1.399       .  A
C896        C897   1.415       .  A
C896        H903   1.083       .  S
C897        C898   1.412       .  A
C898        H904   1.081       .  S
C905        C906   1.408       .  A
C905        C910   1.412       .  A
C906        C907   1.390       .  A
C906        H915   1.083       .  S
C907        C908   1.397       .  A
C907        H916   1.084       .  S
C908        C914   1.397       .  A
C908        C909   1.410       .  A
C909        C911   1.405       .  A
C909        C910   1.415       .  A
C910        H917   1.084       .  S
C911        C912   1.406       .  A
C911        H918   1.083       .  S
C912        C913   1.415       .  A
C912        H919   1.080       .  S
C913        C914   1.413       .  A
C914        H920   1.084       .  S
C921        C922   1.409       .  A
C921        C926   1.405       .  A
C922        C923   1.410       .  A
C922        H931   1.083       .  S
C923        C924   1.408   1_554  A
C923        H932   1.083       .  S
C924        C930   1.424       .  A
C924        C925   1.413   1_556  A
C925        C927   1.393       .  A
C925        C926   1.411       .  A
C926        H933   1.084       .  S
C927        C928   1.394   1_554  A
C927        H934   1.084       .  S
C928        C929   1.423       .  A
C928        H935   1.081       .  S
C929        C930   1.421       .  A
C930        H936   1.083       .  S
C937        C938   1.404       .  A
C938        C939   1.398       .  A
C938        H947   1.083       .  S
C939        H948   1.084       .  S
C940        C946   1.405       .  A
C940        C941   1.414       .  A
C941        C943   1.395       .  A
C941        C942   1.401   1_565  A
C942        H949   1.085       .  S
C943        C944   1.392       .  A
C943        H950   1.084       .  S
C944        C945   1.417       .  A
C944        H951   1.082       .  S
C945        C946   1.413       .  A
C946        H952   1.078       .  S
C953        C954   1.404       .  A
C953        C958   1.397       .  A
C954        C955   1.403       .  A
C954        H963   1.083       .  S
C955        C956   1.405       .  A
C955        H964   1.083       .  S
C956        C962   1.409       .  A
C956        C957   1.413       .  A
C957        C959   1.391       .  A
C957        C958   1.397       .  A
C958        H965   1.085       .  S
C959        C960   1.387       .  A
C959        H966   1.084       .  S
C960        C961   1.421       .  A
C960        H967   1.079       .  S
C961        C962   1.415       .  A
C962        H968   1.084       .  S
C969        C970   1.417       .  A
C969        C974   1.412       .  A
C970        C971   1.401       .  A
C970        H979   1.082       .  S
C971        C972   1.400       .  A
C971        H980   1.083       .  S
C972        C978   1.418       .  A
C972        C973   1.413       .  A
C973        C975   1.395       .  A
C973        C974   1.410       .  A
C974        H981   1.080       .  S
C975        C976   1.393       .  A
C975        H982   1.084       .  S
C976        C977   1.419       .  A
C976        H983   1.083       .  S
C977        C978   1.416       .  A
C978        H984   1.079       .  S
C985        C986   1.409       .  A
C986        C987   1.399       .  A
C986        H995   1.083       .  S
C987        H996   1.084       .  S
C988        C994   1.409       .  A
C988        C989   1.414       .  A
C989        C991   1.396       .  A
C989        C990   1.406       .  A
C990        H997   1.084       .  S
C991        C992   1.394       .  A
C991        H998   1.084       .  S
C992        C993   1.419       .  A
C992        H999   1.081       .  S
C993        C994   1.412       .  A
C994       H1000   1.084       .  S
C1001      C1002   1.400       .  A
C1001      C1006   1.403       .  A
C1002      C1003   1.393       .  A
C1002      H1011   1.084       .  S
C1003      C1004   1.402       .  A
C1003      H1012   1.084       .  S
C1004      C1010   1.395       .  A
C1004      C1005   1.411       .  A
C1005      C1007   1.402       .  A
C1005      C1006   1.403       .  A
C1006      H1013   1.084       .  S
C1007      C1008   1.399       .  A
C1007      H1014   1.083       .  S
C1008      C1009   1.413       .  A
C1008      H1015   1.081       .  S
C1009      C1010   1.413       .  A
C1010      H1016   1.084       .  S
C1017      C1018   1.408       .  A
C1017      C1022   1.407       .  A
C1018      C1019   1.403       .  A
C1018      H1027   1.083       .  S
C1019      C1020   1.404       .  A
C1019      H1028   1.084       .  S
C1020      C1026   1.412       .  A
C1020      C1021   1.411       .  A
C1021      C1023   1.397       .  A
C1021      C1022   1.410       .  A
C1022      H1029   1.084       .  S
C1023      C1024   1.397       .  A
C1023      H1030   1.084       .  S
C1024      C1025   1.419       .  A
C1024      H1031   1.077       .  S
C1025      C1026   1.420       .  A
C1026      H1032   1.084       .  S
C1033      C1034   1.415       .  A
C1033      C1038   1.412       .  A
C1034      C1035   1.395       .  A
C1034      H1043   1.083       .  S
C1035      C1036   1.398       .  A
C1035      H1044   1.084       .  S
C1036      C1042   1.406       .  A
C1036      C1037   1.411       .  A
C1037      C1039   1.398       .  A
C1037      C1038   1.406       .  A
C1038      H1045   1.080       .  S
C1039      C1040   1.395       .  A
C1039      H1046   1.084       .  S
C1040      C1041   1.416       .  A
C1040      H1047   1.083       .  S
C1041      C1042   1.413       .  A
C1042      H1048   1.079       .  S
C1049      C1050   1.417       .  A
C1049      C1054   1.416   1_655  A
C1050      C1051   1.391   1_655  A
C1050      H1059   1.079       .  S
C1051      C1052   1.394       .  A
C1051      H1060   1.084       .  S
C1052      C1058   1.401       .  A
C1052      C1053   1.412       .  A
C1053      C1055   1.405       .  A
C1053      C1054   1.409       .  A
C1054      H1061   1.084       .  S
C1055      C1056   1.403       .  A
C1055      H1062   1.083       .  S
C1056      C1057   1.405       .  A
C1056      H1063   1.083       .  S
C1057      C1058   1.400       .  A
C1058      H1064   1.085       .  S
C1065      C1066   1.405       .  A
C1065      C1070   1.408       .  A
C1066      H1075   1.083       .  S
C1067      C1068   1.400       .  A
C1067      H1076   1.084       .  S
C1068      C1074   1.402       .  A
C1068      C1069   1.412       .  A
C1069      C1071   1.401   1_455  A
C1070      H1077   1.084       .  S
C1071      C1072   1.401       .  A
C1072      C1073   1.416       .  A
C1072      H1079   1.083       .  S
C1073      C1074   1.416   1_655  A
C1074      H1080   1.080       .  S
C1081      C1082   1.415       .  A
C1081      C1086   1.415       .  A
C1082      C1083   1.395       .  A
C1082      H1091   1.079       .  S
C1083      C1084   1.398       .  A
C1083      H1092   1.084       .  S
C1084      C1090   1.401   1_554  A
C1084      C1085   1.412       .  A
C1085      C1087   1.402   1_554  A
C1085      C1086   1.399       .  A
C1086      H1093   1.084       .  S
C1087      C1088   1.396       .  A
C1087      H1094   1.084   1_655  S
C1088      C1089   1.401       .  A
C1088      H1095   1.083       .  S
C1089      C1090   1.400       .  A
C1090      H1096   1.085       .  S
