geometry optimzed in LAMMPS
_audit_creation_date              2020-11-30 
_audit_creation_method            'lammps2cif' 
_symmetry_space_group_name_H-M    'P1' 
_symmetry_Int_Tables_number       1 
_symmetry_cell_setting            triclinic 
loop_ 
_symmetry_equiv_pos_as_xyz 
  x,y,z 
_cell_length_a                    43.79488503 
_cell_length_b                    43.58467039428501 
_cell_length_c                    43.6215562398045 
_cell_angle_alpha                 90.15604708760809 
_cell_angle_beta                  90.01262805427339 
_cell_angle_gamma                 89.96879451039821 
loop_ 
_atom_site_label 
_atom_site_type_symbol 
_atom_site_fract_x 
_atom_site_fract_y 
_atom_site_fract_z 
_atom_site_charge 
O1          O  0.00047249  0.04963342  0.08714520    -0.86900
O2          O  0.99830494  0.05027639  0.41339915    -0.87100
O3          O  0.04929935  0.08704649  0.00032634    -0.88800
O4          O  0.44964484  0.08633507  0.99894177    -0.87500
O5          O  0.41285632  0.04898266  0.99847169    -0.87100
O6          O  0.08624105  0.04986162  0.99901017    -0.88500
O7          O  0.99893585  0.08737718  0.45078126    -0.86900
O8          O  0.99996392  0.08666466  0.05000143    -0.86500
Zr9        Zr  0.99962524  0.06159894  0.00004465     2.84300
O10         O  0.46876611  0.03083237  0.46900278    -1.08500
O11         O  0.03085113  0.03086866  0.03066597    -1.09200
C12         C  0.00039898  0.07790571  0.07826112     1.06200
C13         C  0.99829443  0.07853921  0.42250119     1.06100
C14         C  0.07747760  0.07814594  0.99952991     1.09100
C15         C  0.42152454  0.07730259  0.99831113     1.06900
H16         H  0.04318407  0.04409989  0.45580321     0.32500
O17         O  0.03059255  0.03124708  0.46863849    -1.29500
H18         H  0.45593520  0.04341277  0.04385351     0.32100
O19         O  0.46879220  0.03070064  0.03104955    -1.31100
O20         O  0.99995692  0.45006933  0.41309949    -0.86900
O21         O  0.99955717  0.45001402  0.08678720    -0.88400
O22         O  0.08604653  0.99930726  0.44930052    -0.87000
O23         O  0.41323715  0.99932117  0.44977426    -0.87000
O24         O  0.41340601  0.99835010  0.04962852    -0.86700
O25         O  0.08706011  0.00098040  0.04867982    -0.86600
O26         O  0.05022245  0.41307510  0.00010690    -0.86900
O27         O  0.45096046  0.41230964  0.00012319    -0.86400
O28         O  0.08712431  0.45030063  0.99893668    -0.87500
O29         O  0.41378817  0.44935180  0.99979732    -0.86600
O30         O  0.04910895  0.99927694  0.41215788    -0.87000
O31         O  0.05045162  0.00092859  0.08621712    -0.86700
O32         O  0.45052227  0.99866299  0.08665531    -0.86400
O33         O  0.45019098  0.99954629  0.41265293    -0.86800
O34         O  0.00218969  0.41288393  0.45026821    -0.87100
O35         O  0.99944103  0.41284990  0.04959262    -0.88400
Zr36       Zr  0.99968439  0.00002244  0.43799098     2.83100
Zr37       Zr  0.00026289  0.99984661  0.06161560     2.83500
Zr38       Zr  0.06143464  0.99996060  0.99929604     2.84100
Zr39       Zr  0.43842426  0.99938956  0.99966902     2.83400
Zr40       Zr  0.00043407  0.43802069  0.99987430     2.84200
O41         O  0.46942499  0.46877877  0.03075450    -1.09000
O42         O  0.03070225  0.46892950  0.46856035    -1.08500
C43         C  0.00141466  0.42191523  0.42212098     1.06200
C44         C  0.99917658  0.42171185  0.07786037     1.08800
C45         C  0.07729069  0.99903369  0.42101955     1.06300
C46         C  0.42204898  0.99935206  0.42146459     1.06700
C47         C  0.42233594  0.99817930  0.07789731     1.06300
C48         C  0.07855038  0.00123316  0.07700488     1.05800
C49         C  0.07833733  0.42199417  0.99944339     1.06300
C50         C  0.42276496  0.42110518  0.00012847     1.05800
H51         H  0.04427938  0.45613727  0.04364037     0.32400
O52         O  0.03142548  0.46881928  0.03087455    -1.30100
H53         H  0.45656308  0.45557764  0.45599074     0.32500
O54         O  0.46919147  0.46853493  0.46875827    -1.31500
O55         O  0.00077432  0.20011793  0.16390303    -0.86900
O56         O  0.99999050  0.20138898  0.33824051    -0.87100
O57         O  0.04967903  0.16331926  0.25051039    -0.88800
O58         O  0.44992892  0.16372993  0.25222826    -0.87500
O59         O  0.41306552  0.20104605  0.25195725    -0.87100
O60         O  0.08659727  0.20049013  0.25078418    -0.88500
O61         O  0.99890011  0.16396409  0.30119841    -0.86900
O62         O  0.00005456  0.16325369  0.20124959    -0.86500
Zr63       Zr  0.99983953  0.18862025  0.25102839     2.84300
O64         O  0.46910244  0.21991053  0.28171365    -1.08500
O65         O  0.03080670  0.21910984  0.21982471    -1.09200
C66         C  0.00051946  0.17188849  0.17294737     1.06200
C67         C  0.99930348  0.17308975  0.32943698     1.06100
C68         C  0.07786667  0.17223439  0.25051388     1.09100
C69         C  0.42177993  0.17267527  0.25264520     1.06900
H70         H  0.04364179  0.20652623  0.29492580     0.32500
O71         O  0.03094207  0.21928417  0.28209194    -1.29500
H72         H  0.45634095  0.20653537  0.20685222     0.32100
O73         O  0.46917441  0.21935123  0.21955196    -1.31100
O74         O  0.00167774  0.30063752  0.33772693    -0.86900
O75         O  0.99968933  0.30027364  0.16387140    -0.88400
O76         O  0.08655964  0.25116988  0.30054716    -0.87000
O77         O  0.41333072  0.25073583  0.29992368    -0.87000
O78         O  0.41362023  0.25105628  0.20057837    -0.86700
O79         O  0.08712814  0.24972080  0.20115600    -0.86600
O80         O  0.05084191  0.33678656  0.25162343    -0.86900
O81         O  0.45147504  0.33812813  0.25089505    -0.86400
O82         O  0.08736153  0.29919997  0.25168541    -0.87500
O83         O  0.41436024  0.30112960  0.25041130    -0.86600
O84         O  0.04963040  0.25118805  0.33768115    -0.87000
O85         O  0.05036806  0.24957130  0.16379714    -0.86700
O86         O  0.45051248  0.25079868  0.16337405    -0.86400
O87         O  0.45005822  0.25050313  0.33731018    -0.86800
O88         O  0.00082810  0.33770881  0.30041677    -0.87100
O89         O  0.99991289  0.33748157  0.20105814    -0.88400
Zr90       Zr  0.00005428  0.25082704  0.31254810     2.83100
Zr91       Zr  0.00032215  0.25025854  0.18875366     2.83500
Zr92       Zr  0.06149923  0.25010410  0.25079537     2.84100
Zr93       Zr  0.43872160  0.25083910  0.25043370     2.83400
Zr94       Zr  0.00071358  0.31230157  0.25071596     2.84200
O95         O  0.46966192  0.28162716  0.21956719    -1.09000
O96         O  0.03127078  0.28153023  0.28188563    -1.08500
C97         C  0.00140092  0.32878793  0.32861060     1.06200
C98         C  0.99948888  0.32858820  0.17280417     1.08800
C99         C  0.07774754  0.25143969  0.32880406     1.06300
C100        C  0.42193582  0.25041543  0.32821506     1.06700
C101        C  0.42231870  0.25101275  0.17228046     1.06300
C102        C  0.07853857  0.24949027  0.17281026     1.05800
C103        C  0.07891237  0.32752973  0.25193068     1.06300
C104        C  0.42331114  0.32939316  0.25071794     1.05800
H105        H  0.04427819  0.29407206  0.20678308     0.32400
O106        O  0.03141626  0.28137342  0.21949209    -1.30100
H107        H  0.45668169  0.29484020  0.29447694     0.32500
O108        O  0.46934634  0.28193716  0.28168993    -1.31500
O109        O  0.33665073  0.49907633  0.19990033    -0.86900
O110        O  0.16364133  0.50068162  0.19920033    -0.87100
O111        O  0.24970766  0.44971712  0.16236641    -0.88800
O112        O  0.24975566  0.04923484  0.16265677    -0.87500
O113        O  0.24907969  0.08660456  0.19968402    -0.87100
O114        O  0.25257328  0.41251718  0.19948557    -0.88500
O115        O  0.20064897  0.50062627  0.16211131    -0.86900
O116        O  0.29971903  0.49834133  0.16273060    -0.86500
Zr117      Zr  0.25009996  0.49958354  0.18778566     2.84300
O118        O  0.21911182  0.03079860  0.21837431    -1.08500
O119        O  0.28121696  0.46890109  0.21858266    -1.09200
C120        C  0.32785356  0.49830012  0.17159017     1.06200
C121        C  0.17248391  0.50109428  0.17096679     1.06100
C122        C  0.25138853  0.42154569  0.17131976     1.09100
C123        C  0.24923694  0.07753364  0.17141863     1.06900
H124        H  0.20643159  0.45545217  0.20526526     0.32500
O125        O  0.21910344  0.46830062  0.21810690    -1.29500
H126        H  0.29358699  0.04398827  0.20591254     0.32100
O127        O  0.28079716  0.03117188  0.21859430    -1.31100
O128        O  0.16263990  0.49894151  0.29832335    -0.86900
O129        O  0.33633097  0.50006393  0.29974400    -0.88400
O130        O  0.20097579  0.41232771  0.24978883    -0.87000
O131        O  0.19983774  0.08698742  0.24931586    -0.87000
O132        O  0.29915345  0.08716010  0.25171610    -0.86700
O133        O  0.30022723  0.41328898  0.25013455    -0.86600
O134        O  0.24779269  0.44999010  0.33640602    -0.86900
O135        O  0.25032275  0.04956229  0.33705674    -0.86400
O136        O  0.24886033  0.41281074  0.29916161    -0.87500
O137        O  0.24805692  0.08685666  0.29995651    -0.86600
O138        O  0.16408463  0.44959316  0.25004613    -0.87000
O139        O  0.33696468  0.45064960  0.24994096    -0.86700
O140        O  0.33647684  0.05030722  0.25167664    -0.86400
O141        O  0.16321456  0.04951387  0.24901850    -0.86800
O142        O  0.19925341  0.49922834  0.33581024    -0.87100
O143        O  0.29916192  0.49956340  0.33666751    -0.88400
Zr144      Zr  0.18852150  0.49967654  0.24906454     2.83100
Zr145      Zr  0.31144126  0.50026510  0.24983904     2.83500
Zr146      Zr  0.25036436  0.43794998  0.24933850     2.84100
Zr147      Zr  0.24953173  0.06180823  0.24978180     2.83400
Zr148      Zr  0.24946798  0.49984274  0.31138161     2.84200
O149        O  0.28039795  0.03107452  0.28081837    -1.09000
O150        O  0.21916923  0.46878449  0.28007847    -1.08500
C151        C  0.17114335  0.49883099  0.32665298     1.06200
C152        C  0.32737500  0.49973929  0.32796937     1.08800
C153        C  0.17284879  0.42130481  0.25037247     1.06300
C154        C  0.17174677  0.07788598  0.24915688     1.06700
C155        C  0.32740090  0.07855682  0.25227632     1.06300
C156        C  0.32831053  0.42231492  0.25019946     1.05800
C157        C  0.24778048  0.42171701  0.32743678     1.06300
C158        C  0.24912191  0.07777040  0.32813053     1.05800
H159        H  0.29348143  0.45614545  0.29363211     0.32400
O160        O  0.28084663  0.46892432  0.28074538    -1.30100
H161        H  0.20563939  0.04355208  0.29334762     0.32500
O162        O  0.21857746  0.03088831  0.28059239    -1.31500
O163        O  0.19950856  0.16339914  0.49900506    -0.86900
O164        O  0.20052189  0.33725707  0.49989861    -0.87100
O165        O  0.16348347  0.24919285  0.04959762    -0.88800
O166        O  0.16367325  0.25112827  0.44992805    -0.87500
O167        O  0.20064456  0.25083706  0.41283448    -0.87100
O168        O  0.20042902  0.24946588  0.08677627    -0.88500
O169        O  0.16349609  0.30013394  0.49977232    -0.86900
O170        O  0.16276870  0.20083453  0.49932114    -0.86500
Zr171      Zr  0.18857078  0.25016196  0.49980826     2.84300
O172        O  0.21924754  0.28096364  0.46875889    -1.08500
O173        O  0.21931234  0.21896531  0.03067378    -1.09200
C174        C  0.17134195  0.17250314  0.49899878     1.06200
C175        C  0.17239297  0.32841626  0.49990808     1.06100
C176        C  0.17222623  0.24908974  0.07789204     1.09100
C177        C  0.17252734  0.25129449  0.42167505     1.06900
H178        H  0.20659010  0.29387285  0.04371546     0.32500
O179        O  0.21934446  0.28112980  0.03085642    -1.29500
H180        H  0.20616960  0.20604350  0.45570825     0.32100
O181        O  0.21894562  0.21872759  0.46859719    -1.31100
O182        O  0.29970977  0.33711653  0.50007413    -0.86900
O183        O  0.29984503  0.16294941  0.49888676    -0.88400
O184        O  0.25154798  0.30006496  0.08665154    -0.87000
O185        O  0.24922333  0.29907974  0.41241684    -0.87000
O186        O  0.24925267  0.19975627  0.41251908    -0.86700
O187        O  0.24975557  0.20006802  0.08633892    -0.86600
O188        O  0.33703233  0.25021025  0.04938598    -0.86900
O189        O  0.33672383  0.24944130  0.45048870    -0.86400
O190        O  0.30024996  0.24989490  0.08666155    -0.87500
O191        O  0.29998039  0.24901008  0.41315227    -0.86600
O192        O  0.24921678  0.33732629  0.04949897    -0.87000
O193        O  0.24936927  0.16266947  0.04933377    -0.86700
O194        O  0.25154471  0.16249180  0.44962263    -0.86400
O195        O  0.24853729  0.33653113  0.44941000    -0.86800
O196        O  0.33665860  0.29985742  0.50007766    -0.87100
O197        O  0.33664742  0.20029570  0.49919522    -0.88400
Zr198      Zr  0.25000311  0.31193229  0.49977168     2.83100
Zr199      Zr  0.24988000  0.18785854  0.49954194     2.83500
Zr200      Zr  0.25029504  0.25001134  0.06155130     2.84100
Zr201      Zr  0.25011326  0.24964648  0.43804454     2.83400
Zr202      Zr  0.31139960  0.25001614  0.49996471     2.84200
O203        O  0.28093686  0.21874380  0.46884450    -1.09000
O204        O  0.28103720  0.28123362  0.03085080    -1.08500
C205        C  0.32785300  0.32817364  0.50009573     1.06200
C206        C  0.32798292  0.17198368  0.49882190     1.08800
C207        C  0.25039544  0.32826780  0.07766634     1.06300
C208        C  0.24852854  0.32739795  0.42114038     1.06700
C209        C  0.25051866  0.17154189  0.42145347     1.06300
C210        C  0.24940495  0.17174164  0.07757593     1.05800
C211        C  0.32842082  0.25011294  0.07768619     1.06300
C212        C  0.32809815  0.24912629  0.42221109     1.05800
H213        H  0.29375490  0.20583793  0.04345805     0.32400
O214        O  0.28097404  0.21862937  0.03073665    -1.30100
H215        H  0.29367777  0.29380275  0.45589735     0.32500
O216        O  0.28096548  0.28105617  0.46871115    -1.31500
C217        C  0.24900660  0.13264955  0.15545586    -0.21700
C218        C  0.24896277  0.10144965  0.14721455    -0.09800
C219        C  0.24880614  0.09365958  0.11578911     0.29100
C220        C  0.24894519  0.11657132  0.09348176    -0.21700
C221        C  0.24913835  0.14778000  0.10173840    -0.09800
C222        C  0.24910957  0.15555229  0.13315270     0.29100
F223        F  0.24926154  0.18525131  0.14260385    -0.20300
H224        H  0.24906214  0.13952793  0.17933075     0.17500
H225        H  0.24890858  0.10969870  0.06960372     0.17500
F226        F  0.24849455  0.06395497  0.10633495    -0.20300
C227        C  0.27275538  0.35143442  0.12477046    -0.21700
C228        C  0.25050548  0.35209014  0.10161900    -0.09800
C229        C  0.22859346  0.37565224  0.10154160     0.29100
C230        C  0.22917701  0.39836017  0.12422783    -0.21700
C231        C  0.25144421  0.39773664  0.14735587    -0.09800
C232        C  0.27340151  0.37421389  0.14740917     0.29100
F233        F  0.29604399  0.37391104  0.16867363    -0.20300
H234        H  0.28998285  0.33358031  0.12493578     0.17500
H235        H  0.21192021  0.41618796  0.12406992     0.17500
F236        F  0.20608170  0.37611403  0.08014894    -0.20300
C237        C  0.25505579  0.36725639  0.34389209    -0.21700
C238        C  0.24690672  0.39756386  0.35137064    -0.09800
C239        C  0.23851108  0.40434512  0.38184799     0.29100
C240        C  0.23905223  0.38145495  0.40423498    -0.21700
C241        C  0.24769636  0.35125208  0.39686713    -0.09800
C242        C  0.25550132  0.34435149  0.36623237     0.29100
F243        F  0.26436412  0.31569285  0.35779658    -0.20300
H244        H  0.26168940  0.36125583  0.32071735     0.17500
H245        H  0.23247905  0.38743833  0.42742870     0.17500
F246        F  0.22938745  0.43296888  0.39011455    -0.20300
C247        C  0.27164464  0.10121768  0.37505213    -0.21700
C248        C  0.24916565  0.10159539  0.35211725    -0.09800
C249        C  0.22707856  0.12499199  0.35217413     0.29100
C250        C  0.22787571  0.14797771  0.37461995    -0.21700
C251        C  0.25040937  0.14765230  0.39751198    -0.09800
C252        C  0.27237915  0.12413435  0.39756249     0.29100
F253        F  0.29506356  0.12390318  0.41878352    -0.20300
H254        H  0.28895921  0.08344834  0.37517043     0.17500
H255        H  0.21053326  0.16571909  0.37452750     0.17500
F256        F  0.20418638  0.12497477  0.33117408    -0.20300
C257        C  0.38186731  0.09516575  0.25946327    -0.21700
C258        C  0.35125376  0.10292619  0.25349068    -0.09800
C259        C  0.34400396  0.13403426  0.24833538     0.29100
C260        C  0.36689975  0.15642272  0.24849678    -0.21700
C261        C  0.39762325  0.14857602  0.25373577    -0.09800
C262        C  0.40477021  0.11756020  0.25963277     0.29100
F263        F  0.43385717  0.10865099  0.26568152    -0.20300
H264        H  0.38825192  0.07159359  0.26397180     0.17500
H265        H  0.36049189  0.17998030  0.24396332     0.17500
F266        F  0.31490322  0.14295954  0.24238740    -0.20300
C267        C  0.36834643  0.34489672  0.25150689    -0.21700
C268        C  0.39928937  0.35346975  0.25096621    -0.09800
C269        C  0.40661239  0.38498057  0.25063364     0.29100
C270        C  0.38346878  0.40704610  0.25049283    -0.21700
C271        C  0.35251200  0.39842631  0.25071559    -0.09800
C272        C  0.34523548  0.36692850  0.25143273     0.29100
F273        F  0.31582986  0.35711918  0.25207448    -0.20300
H274        H  0.36180888  0.32094276  0.25195691     0.17500
H275        H  0.38995538  0.43101681  0.25009757     0.17500
F276        F  0.43604965  0.39472668  0.25026893    -0.20300
C277        C  0.09396411  0.11708019  0.24874639    -0.21700
C278        C  0.10204775  0.14825594  0.25019155    -0.09800
C279        C  0.13333639  0.15599134  0.25125377     0.29100
C280        C  0.15563604  0.13306510  0.25082746    -0.21700
C281        C  0.14754478  0.10186983  0.24937235    -0.09800
C282        C  0.11627292  0.09415405  0.24837634     0.29100
F283        F  0.10696947  0.06448120  0.24706927    -0.20300
H284        H  0.07020837  0.11024728  0.24788386     0.17500
H285        H  0.17938717  0.13991655  0.25173837     0.17500
F286        F  0.14267371  0.18566066  0.25279096    -0.20300
C287        C  0.09531229  0.38238100  0.25454501    -0.21700
C288        C  0.10324337  0.35122436  0.25234553    -0.09800
C289        C  0.13444577  0.34329678  0.25040454     0.29100
C290        C  0.15679430  0.36613344  0.24975564    -0.21700
C291        C  0.14878337  0.39733941  0.25144885    -0.09800
C292        C  0.11765819  0.40516248  0.25435009     0.29100
F293        F  0.10854008  0.43479500  0.25726862    -0.20300
H294        H  0.07164539  0.38931695  0.25653697     0.17500
H295        H  0.18048135  0.35922846  0.24787059     0.17500
F296        F  0.14361608  0.31355714  0.24901584    -0.20300
C297        C  0.40626601  0.25045704  0.11700120    -0.21700
C298        C  0.39813858  0.25096769  0.14819750    -0.09800
C299        C  0.36680927  0.25115578  0.15583735     0.29100
C300        C  0.34453412  0.25078679  0.13287474    -0.21700
C301        C  0.35265048  0.25027646  0.10169194    -0.09800
C302        C  0.38397841  0.25006836  0.09402659     0.29100
F303        F  0.39336226  0.24940263  0.06437065    -0.20300
H304        H  0.43004349  0.25026643  0.11019066     0.17500
H305        H  0.32075973  0.25096038  0.13969640     0.17500
F306        F  0.35739498  0.25172033  0.18547816    -0.20300
C307        C  0.09470681  0.24553264  0.11770350    -0.21700
C308        C  0.10275357  0.24915235  0.14873313    -0.09800
C309        C  0.13397110  0.25243616  0.15614227     0.29100
C310        C  0.15619319  0.25222535  0.13308888    -0.21700
C311        C  0.14811948  0.24877510  0.10205050    -0.09800
C312        C  0.11692746  0.24530217  0.09465767     0.29100
F313        F  0.10763565  0.24150191  0.06519973    -0.20300
H314        H  0.07103224  0.24275797  0.11108511     0.17500
H315        H  0.17987046  0.25501295  0.13969399     0.17500
F316        F  0.14327999  0.25616581  0.18560078    -0.20300
C317        C  0.13277473  0.25106653  0.34417031    -0.21700
C318        C  0.10182823  0.25189988  0.35274266    -0.09800
C319        C  0.09448121  0.25304158  0.38419166     0.29100
C320        C  0.11755829  0.25298958  0.40624178    -0.21700
C321        C  0.14849596  0.25186619  0.39768591    -0.09800
C322        C  0.15585841  0.25108177  0.36622105     0.29100
F323        F  0.18528907  0.25016714  0.35648857    -0.20300
H324        H  0.13931129  0.25026811  0.32023751     0.17500
H325        H  0.11101584  0.25377087  0.43017224     0.17500
F326        F  0.06505719  0.25419965  0.39391138    -0.20300
C327        C  0.40576011  0.25180928  0.38323179    -0.21700
C328        C  0.39773085  0.24993655  0.35208438    -0.09800
C329        C  0.36653399  0.24748439  0.34431638     0.29100
C330        C  0.34423316  0.24716745  0.36718589    -0.21700
C331        C  0.35227265  0.24914593  0.39832711    -0.09800
C332        C  0.38347337  0.25137772  0.40609790     0.29100
F333        F  0.39272506  0.25331904  0.43574580    -0.20300
H334        H  0.42945357  0.25369400  0.39009070     0.13100
H335        H  0.32053218  0.24529642  0.36034257     0.17500
F336        F  0.35730793  0.24517169  0.31468552    -0.20300
C337        C  0.36841731  0.40492052  0.49244624    -0.21700
C338        C  0.39870594  0.39711432  0.00031072    -0.09800
C339        C  0.40516489  0.36664457  0.00888316     0.29100
C340        C  0.38213982  0.34443300  0.00850012    -0.21700
C341        C  0.35207782  0.35205070  0.00005748    -0.09800
C342        C  0.34533391  0.38281551  0.49244002     0.29100
F343        F  0.31666719  0.39157492  0.48446163    -0.20300
H344        H  0.36256743  0.42819028  0.48605232     0.17500
H345        H  0.38784141  0.32124961  0.01532287     0.17500
F346        F  0.43348907  0.35833048  0.01841692    -0.20300
C347        C  0.34421709  0.11712020  0.49330913    -0.21700
C348        C  0.35212173  0.14785087  0.99827285    -0.09800
C349        C  0.38306318  0.15514885  0.00354911     0.29100
C350        C  0.40530128  0.13217060  0.00324296    -0.21700
C351        C  0.39746029  0.10136667  0.99772751    -0.09800
C352        C  0.36647030  0.09413188  0.49300749     0.29100
F353        F  0.35745822  0.06480339  0.48766802    -0.20300
H354        H  0.32066332  0.11061393  0.48943787     0.17500
H355        H  0.42876558  0.13860743  0.00773493     0.17500
F356        F  0.39202224  0.18437331  0.00953479    -0.20300
C357        C  0.13254470  0.40551308  0.00742503    -0.21700
C358        C  0.10234753  0.39793658  0.99951735    -0.09800
C359        C  0.09543815  0.36732442  0.49167681     0.29100
C360        C  0.11827059  0.34495675  0.49211318    -0.21700
C361        C  0.14856322  0.35245746  0.00008942    -0.09800
C362        C  0.15541213  0.38313565  0.00779141     0.29100
F363        F  0.18406361  0.39159947  0.01614806    -0.20300
H364        H  0.13851134  0.42881993  0.01367934     0.17500
H365        H  0.11227610  0.32165999  0.48584973     0.17500
F366        F  0.06684782  0.35884246  0.48320119    -0.20300
C367        C  0.15515603  0.11736850  0.99764339    -0.21700
C368        C  0.14708938  0.14857608  0.99841506    -0.09800
C369        C  0.11575158  0.15634576  0.49747484     0.29100
C370        C  0.09343050  0.13342695  0.49798071    -0.21700
C371        C  0.10158841  0.10219384  0.99894210    -0.09800
C372        C  0.13286729  0.09446377  0.99770772     0.29100
F373        F  0.14222163  0.06478980  0.99644006    -0.20300
H374        H  0.17890616  0.11047629  0.99694952     0.17500
H375        H  0.06966164  0.14025956  0.49720616     0.17500
F376        F  0.10642863  0.18599821  0.49565546    -0.20300
C377        C  0.36699039  0.99925937  0.40569638    -0.21700
C378        C  0.39800664  0.99914129  0.39732740    -0.09800
C379        C  0.40545575  0.49911923  0.36586905     0.29100
C380        C  0.38243723  0.49923560  0.34368524    -0.21700
C381        C  0.35143944  0.99945243  0.35204273    -0.09800
C382        C  0.34398473  0.99948527  0.38349403     0.29100
F383        F  0.31450026  0.99993411  0.39306804    -0.20300
H384        H  0.36033862  0.99934802  0.42960508     0.17500
H385        H  0.38908987  0.49928219  0.31977383     0.17500
F386        F  0.43493395  0.49914205  0.35623790    -0.20300
C387        C  0.15497545  0.99825064  0.38171453    -0.21700
C388        C  0.14688376  0.99844375  0.35053260    -0.09800
C389        C  0.11556981  0.49810575  0.34277406     0.29100
C390        C  0.09326259  0.49815530  0.36571763    -0.21700
C391        C  0.10140033  0.99854405  0.39693115    -0.09800
C392        C  0.13270273  0.99833026  0.40462153     0.29100
F393        F  0.14210097  0.99834441  0.43427264    -0.20300
H394        H  0.17873667  0.99816999  0.38859315     0.17500
H395        H  0.06948718  0.49803379  0.35888689     0.17500
F396        F  0.10625186  0.49791033  0.31308295    -0.20300
C397        C  0.09544827  0.50853243  0.13136976    -0.21700
C398        C  0.10288364  0.00180690  0.10075547    -0.09800
C399        C  0.13364662  0.99554103  0.09337355     0.29100
C400        C  0.15602339  0.99558971  0.11622114    -0.21700
C401        C  0.14846683  0.00195117  0.14690768    -0.09800
C402        C  0.11785215  0.50876587  0.15416987     0.29100
F403        F  0.10939283  0.51607979  0.18322407    -0.20300
H404        H  0.07214843  0.51385913  0.13778787     0.17500
H405        H  0.17932136  0.99021976  0.10982256     0.17500
F406        F  0.14224541  0.98877103  0.06422481    -0.20300
C407        C  0.38288288  0.49939532  0.15577010    -0.21700
C408        C  0.35187378  0.99755842  0.14744354    -0.09800
C409        C  0.34445340  0.99476333  0.11607037     0.29100
C410        C  0.36741218  0.99490387  0.09381990    -0.21700
C411        C  0.39834941  0.99759466  0.10207099    -0.09800
C412        C  0.40585492  0.49935278  0.13353578     0.29100
F413        F  0.43530512  0.50125283  0.14305927    -0.20300
H414        H  0.38952380  0.50103736  0.17963337     0.17500
H415        H  0.36079623  0.99284701  0.06997915     0.17500
F416        F  0.31506362  0.99176474  0.10662428    -0.20300
C417        C  0.50898214  0.13227771  0.40569484    -0.21700
C418        C  0.99792910  0.10278006  0.39874171    -0.09800
C419        C  0.98703176  0.09681262  0.36894256     0.29100
C420        C  0.98754103  0.11978613  0.34668368    -0.21700
C421        C  0.99885350  0.14918521  0.35352654    -0.09800
C422        C  0.50961958  0.15522937  0.38339151     0.29100
F423        F  0.52165024  0.18296138  0.39091102    -0.20300
H424        H  0.51777891  0.13747832  0.42833305     0.17500
H425        H  0.97878276  0.11456363  0.32403833     0.17500
F426        F  0.97535477  0.06896754  0.36133590    -0.20300
C427        C  0.51929014  0.34888098  0.37890357    -0.21700
C428        C  0.00154873  0.35271017  0.35239295    -0.09800
C429        C  0.98387119  0.37940077  0.34895379     0.29100
C430        C  0.98410837  0.40193334  0.37170651    -0.21700
C431        C  0.00182241  0.39812254  0.39822166    -0.09800
C432        C  0.51959172  0.37148046  0.40162778     0.29100
F433        F  0.53794578  0.36776111  0.42640457    -0.20300
H434        H  0.53330191  0.32858922  0.38176822     0.17500
H435        H  0.97000085  0.42216048  0.36886403     0.17500
F436        F  0.96558227  0.38321065  0.32411687    -0.20300
C437        C  0.99913920  0.34407702  0.11759259    -0.21700
C438        C  0.99883275  0.35261223  0.14870565    -0.09800
C439        C  0.49793778  0.38410890  0.15618849     0.29100
C440        C  0.49787791  0.40621029  0.13307837    -0.21700
C441        C  0.99859587  0.39767919  0.10196492    -0.09800
C442        C  0.99895771  0.36617347  0.09448476     0.29100
F443        F  0.99928733  0.35643604  0.06489841    -0.20300
H444        H  0.99963641  0.32012562  0.11093732     0.17500
H445        H  0.49735010  0.43016262  0.13972867     0.17500
F446        F  0.49714704  0.39383203  0.18577431    -0.20300
C447        C  0.99767329  0.09396328  0.13339609    -0.21700
C448        C  0.00069570  0.10208881  0.10236306    -0.09800
C449        C  0.50388992  0.13339328  0.09489454     0.29100
C450        C  0.50383182  0.15572879  0.11790844    -0.21700
C451        C  0.00067792  0.14762358  0.14893127    -0.09800
C452        C  0.99763365  0.11630628  0.15641991     0.29100
F453        F  0.99432266  0.10703288  0.18591891    -0.20300
H454        H  0.99511467  0.07017209  0.14001567     0.17500
H455        H  0.50637606  0.17951582  0.11126826     0.17500
F456        F  0.50731625  0.14267038  0.06540968    -0.20300
O457        O  0.00045629  0.04963742  0.58730173    -0.86900
O458        O  0.99852031  0.05015959  0.91325729    -0.87100
O459        O  0.04924595  0.08712313  0.50042106    -0.88800
O460        O  0.44964322  0.08645656  0.49916812    -0.87500
O461        O  0.41286401  0.04910577  0.49861941    -0.87100
O462        O  0.08617228  0.04992015  0.49918490    -0.88500
O463        O  0.99925322  0.08727236  0.95064294    -0.86900
O464        O  0.99991041  0.08666407  0.55016557    -0.86500
Zr465      Zr  0.99958262  0.06167011  0.50017133     2.84300
O466        O  0.46882038  0.03075182  0.96886274    -1.08500
O467        O  0.03082355  0.03092948  0.53076985    -1.09200
C468        C  0.00033113  0.07791111  0.57842657     1.06200
C469        C  0.99863013  0.07841830  0.92237045     1.06100
C470        C  0.07742026  0.07820650  0.49971688     1.09100
C471        C  0.42152584  0.07742715  0.49850772     1.06900
H472        H  0.04327536  0.04399459  0.95571048     0.32500
O473        O  0.03066741  0.03116229  0.96854995    -1.29500
H474        H  0.45592814  0.04347920  0.54397953     0.32100
O475        O  0.46876928  0.03076028  0.53116726    -1.31100
O476        O  0.00005792  0.45000605  0.91303474    -0.86900
O477        O  0.99955276  0.45005873  0.58688775    -0.88400
O478        O  0.08613756  0.99906857  0.94926013    -0.87000
O479        O  0.41337939  0.99908651  0.94959435    -0.87000
O480        O  0.41343720  0.99858479  0.54979092    -0.86700
O481        O  0.08700805  0.00104154  0.54874372    -0.86600
O482        O  0.05012618  0.41312854  0.50005075    -0.86900
O483        O  0.45084370  0.41242005  0.50020066    -0.86400
O484        O  0.08702439  0.45035931  0.49880859    -0.87500
O485        O  0.41367716  0.44946079  0.49984734    -0.86600
O486        O  0.04920541  0.99905120  0.91210677    -0.87000
O487        O  0.05041477  0.00097291  0.58627574    -0.86700
O488        O  0.45055304  0.99891152  0.58682082    -0.86400
O489        O  0.45034514  0.99930039  0.91248380    -0.86800
O490        O  0.00234890  0.41282876  0.95020839    -0.87100
O491        O  0.99940538  0.41287634  0.54971007    -0.88400
Zr492      Zr  0.99978244  0.99993207  0.93790004     2.83100
Zr493      Zr  0.00024008  0.99988768  0.56170723     2.83500
Zr494      Zr  0.06136567  0.00002543  0.49935828     2.84100
Zr495      Zr  0.43836815  0.99948082  0.49980024     2.83400
Zr496      Zr  0.00033498  0.43807359  0.49996410     2.84200
O497        O  0.46934210  0.46883092  0.53087691    -1.09000
O498        O  0.03082646  0.46885189  0.96847582    -1.08500
C499        C  0.00154310  0.42186520  0.92206934     1.06200
C500        C  0.99917802  0.42174999  0.57798152     1.08800
C501        C  0.07737873  0.99873733  0.92098250     1.06300
C502        C  0.42220381  0.99907240  0.92128728     1.06700
C503        C  0.42237132  0.99848069  0.57805647     1.06300
C504        C  0.07851124  0.00131793  0.57707297     1.05800
C505        C  0.07823808  0.42205369  0.49930978     1.06300
C506        C  0.42264927  0.42121093  0.50016996     1.05800
H507        H  0.04423937  0.45616913  0.54369048     0.32400
O508        O  0.03137345  0.46885637  0.53094125    -1.30100
H509        H  0.45666951  0.45547210  0.95589492     0.32500
O510        O  0.46928187  0.46844870  0.96865858    -1.31500
O511        O  0.00069158  0.20014571  0.66408343    -0.86900
O512        O  0.00022496  0.20133413  0.83837659    -0.87100
O513        O  0.04957295  0.16330783  0.75081820    -0.88800
O514        O  0.44973454  0.16390616  0.75247584    -0.87500
O515        O  0.41288914  0.20124037  0.75209671    -0.87100
O516        O  0.08652485  0.20044674  0.75108096    -0.88500
O517        O  0.99893492  0.16395214  0.80128124    -0.86900
O518        O  0.99992519  0.16328225  0.70142420    -0.86500
Zr519      Zr  0.99973642  0.18866366  0.75117629     2.84300
O520        O  0.46900451  0.21996381  0.78185819    -1.08500
O521        O  0.03074929  0.21911896  0.71998115    -1.09200
C522        C  0.00041127  0.17191394  0.67312467     1.06200
C523        C  0.99951983  0.17304531  0.82951847     1.06100
C524        C  0.07777305  0.17219637  0.75086900     1.09100
C525        C  0.42158528  0.17286780  0.75286063     1.06900
H526        H  0.04356623  0.20654484  0.79505108     0.32500
O527        O  0.03086870  0.21930398  0.78221743    -1.29500
H528        H  0.45626586  0.20661885  0.70699645     0.32100
O529        O  0.46911286  0.21942314  0.71969374    -1.31100
O530        O  0.00171923  0.30064828  0.83781089    -0.86900
O531        O  0.99978718  0.30038403  0.66411663    -0.88400
O532        O  0.08649835  0.25114680  0.80071460    -0.87000
O533        O  0.41326823  0.25093632  0.79996575    -0.87000
O534        O  0.41358749  0.25115985  0.70070130    -0.86700
O535        O  0.08711775  0.24963411  0.70131721    -0.86600
O536        O  0.05085867  0.33677505  0.75187087    -0.86900
O537        O  0.45156987  0.33824819  0.75102179    -0.86400
O538        O  0.08736588  0.29918132  0.75185787    -0.87500
O539        O  0.41441773  0.30128897  0.75049761    -0.86600
O540        O  0.04957247  0.25121268  0.83785279    -0.87000
O541        O  0.05033985  0.24952417  0.66397719    -0.86700
O542        O  0.45047556  0.25088483  0.66349417    -0.86400
O543        O  0.44997657  0.25057349  0.83737056    -0.86800
O544        O  0.00082481  0.33772184  0.80050052    -0.87100
O545        O  0.00001208  0.33760428  0.70128911    -0.88400
Zr546      Zr  0.00001258  0.25081967  0.81269908     2.83100
Zr547      Zr  0.00029098  0.25030230  0.68890662     2.83500
Zr548      Zr  0.06147542  0.25008794  0.75095010     2.84100
Zr549      Zr  0.43868943  0.25095106  0.75054469     2.83400
Zr550      Zr  0.00073500  0.31230892  0.75086274     2.84200
O551        O  0.46964715  0.28171125  0.71968543    -1.09000
O552        O  0.03125278  0.28151123  0.78204434    -1.08500
C553        C  0.00143082  0.32879121  0.82867958     1.06200
C554        C  0.99960960  0.32870545  0.67304112     1.08800
C555        C  0.07768750  0.25143595  0.82897066     1.06300
C556        C  0.42186172  0.25058591  0.82825031     1.06700
C557        C  0.42227776  0.25109960  0.67240329     1.06300
C558        C  0.07851420  0.24940982  0.67297506     1.05800
C559        C  0.07892552  0.32751483  0.75216788     1.06300
C560        C  0.42340150  0.32954179  0.75081283     1.05800
H561        H  0.04430105  0.29407051  0.70694480     0.32400
O562        O  0.03142398  0.28137799  0.71964431    -1.30100
H563        H  0.45668414  0.29490110  0.79462100     0.32500
O564        O  0.46933818  0.28198045  0.78184046    -1.31500
O565        O  0.33659014  0.49932519  0.69987790    -0.86900
O566        O  0.16360397  0.50064564  0.69934975    -0.87100
O567        O  0.24962870  0.44976669  0.66233483    -0.88800
O568        O  0.24960468  0.04930589  0.66276229    -0.87500
O569        O  0.24885297  0.08664427  0.69982982    -0.87100
O570        O  0.25260181  0.41253721  0.69941710    -0.88500
O571        O  0.20056162  0.50081859  0.66223238    -0.86900
O572        O  0.29966106  0.49852698  0.66270460    -0.86500
Zr573      Zr  0.25005359  0.49962896  0.68780548     2.84300
O574        O  0.21907588  0.03077897  0.71846577    -1.08500
O575        O  0.28123713  0.46894066  0.71852370    -1.09200
C576        C  0.32779509  0.49856464  0.67157377     1.06200
C577        C  0.17240306  0.50118920  0.67111149     1.06100
C578        C  0.25135731  0.42158823  0.67127084     1.09100
C579        C  0.24900255  0.07759238  0.67155305     1.06900
H580        H  0.20642067  0.45545158  0.70526399     0.32500
O581        O  0.21910635  0.46828511  0.71810685    -1.29500
H582        H  0.29349839  0.04408157  0.70597408     0.32100
O583        O  0.28073639  0.03122263  0.71864118    -1.31100
O584        O  0.16275654  0.49884683  0.79841740    -0.86900
O585        O  0.33645015  0.49995061  0.79961289    -0.88400
O586        O  0.20102091  0.41228371  0.74980327    -0.87000
O587        O  0.19975778  0.08692535  0.74964270    -0.87000
O588        O  0.29903707  0.08720897  0.75180054    -0.86700
O589        O  0.30033654  0.41333255  0.75006384    -0.86600
O590        O  0.24803767  0.44971375  0.83627626    -0.86900
O591        O  0.25032280  0.04919408  0.83723804    -0.86400
O592        O  0.24905338  0.41259545  0.79897775    -0.87500
O593        O  0.24805023  0.08656973  0.80021420    -0.86600
O594        O  0.16413248  0.44954871  0.75016047    -0.87000
O595        O  0.33702131  0.45075212  0.74991913    -0.86700
O596        O  0.33640280  0.05040052  0.75187782    -0.86400
O597        O  0.16316547  0.04942444  0.74927386    -0.86800
O598        O  0.19938272  0.49887779  0.83589378    -0.87100
O599        O  0.29931459  0.49926959  0.83656164    -0.88400
Zr600      Zr  0.18855303  0.49961610  0.74914662     2.83100
Zr601      Zr  0.31143164  0.50032275  0.74980638     2.83500
Zr602      Zr  0.25042621  0.43790311  0.74925171     2.84100
Zr603      Zr  0.24946752  0.06176454  0.74991308     2.83400
Zr604      Zr  0.24955589  0.49962352  0.81138397     2.84200
O605        O  0.28037295  0.03099774  0.78089147    -1.09000
O606        O  0.21921927  0.46863699  0.78006234    -1.08500
C607        C  0.17127164  0.49861140  0.82673715     1.06200
C608        C  0.32752126  0.49948347  0.82783823     1.08800
C609        C  0.17289318  0.42126325  0.75046457     1.06300
C610        C  0.17167100  0.07780860  0.74950822     1.06700
C611        C  0.32729256  0.07864261  0.75243879     1.06300
C612        C  0.32840518  0.42240814  0.75019700     1.05800
C613        C  0.24803633  0.42145697  0.82726538     1.06300
C614        C  0.24910552  0.07741446  0.82836866     1.05800
H615        H  0.29358834  0.45604882  0.79350135     0.32400
O616        O  0.28092732  0.46883966  0.78065335    -1.30100
H617        H  0.20568279  0.04334536  0.79350520     0.32500
O618        O  0.21861983  0.03072689  0.78070496    -1.31500
O619        O  0.19955440  0.16334334  0.99889114    -0.86900
O620        O  0.20063548  0.33720186  0.99979753    -0.87100
O621        O  0.16334683  0.24929306  0.54963243    -0.88800
O622        O  0.16370992  0.25113657  0.94998005    -0.87500
O623        O  0.20063883  0.25075772  0.91284976    -0.87100
O624        O  0.20029683  0.24932793  0.58680699    -0.88500
O625        O  0.16360987  0.30007728  0.99980544    -0.86900
O626        O  0.16284436  0.20080239  0.99924331    -0.86500
Zr627      Zr  0.18867840  0.25011293  0.99978338     2.84300
O628        O  0.21933062  0.28086221  0.96866030    -1.08500
O629        O  0.21921100  0.21896919  0.53067215    -1.09200
C630        C  0.17139373  0.17246484  0.99887358     1.06200
C631        C  0.17250599  0.32835874  0.99990749     1.06100
C632        C  0.17209196  0.24907766  0.57792931     1.09100
C633        C  0.17253468  0.25128932  0.92172472     1.06900
H634        H  0.20645104  0.29384215  0.54382766     0.32500
O635        O  0.21922114  0.28112156  0.53096185    -1.29500
H636        H  0.20618267  0.20592092  0.95569374     0.32100
O637        O  0.21897048  0.21860660  0.96856918    -1.31100
O638        O  0.29983110  0.33704391  0.99986340    -0.86900
O639        O  0.29985043  0.16282298  0.99888751    -0.88400
O640        O  0.25132748  0.29992179  0.58685108    -0.87000
O641        O  0.24937002  0.29878422  0.91219398    -0.87000
O642        O  0.24927998  0.19949780  0.91254795    -0.86700
O643        O  0.24969236  0.19998266  0.58633782    -0.86600
O644        O  0.33688979  0.25033001  0.54954645    -0.86900
O645        O  0.33670236  0.24935163  0.95039783    -0.86400
O646        O  0.30010678  0.24987706  0.58682036    -0.87500
O647        O  0.29994924  0.24882512  0.91307595    -0.86600
O648        O  0.24903295  0.33722219  0.54973406    -0.87000
O649        O  0.24939766  0.16259852  0.54931612    -0.86700
O650        O  0.25160844  0.16231017  0.94972067    -0.86400
O651        O  0.24875594  0.33627551  0.94915030    -0.86800
O652        O  0.33676171  0.29976203  0.99997395    -0.87100
O653        O  0.33666929  0.20015972  0.99909487    -0.88400
Zr654      Zr  0.25012129  0.31187326  0.99960250     2.83100
Zr655      Zr  0.24992421  0.18780401  0.99954293     2.83500
Zr656      Zr  0.25017825  0.24995398  0.56162308     2.84100
Zr657      Zr  0.25013788  0.24945479  0.93798018     2.83400
Zr658      Zr  0.31146533  0.24991772  0.99987114     2.84200
O659        O  0.28099285  0.21860845  0.96879590    -1.09000
O660        O  0.28091643  0.28124708  0.53098362    -1.08500
C661        C  0.32796825  0.32808534  0.99994881     1.06200
C662        C  0.32798922  0.17184876  0.99877106     1.08800
C663        C  0.25017475  0.32812802  0.57788799     1.06300
C664        C  0.24874473  0.32710808  0.92089187     1.06700
C665        C  0.25056395  0.17129904  0.92153926     1.06300
C666        C  0.24941657  0.17166032  0.57756847     1.05800
C667        C  0.32828111  0.25018327  0.57785150     1.06300
C668        C  0.32805854  0.24901907  0.92213367     1.05800
H669        H  0.29369554  0.20586377  0.54349394     0.32400
O670        O  0.28091092  0.21865871  0.53077970    -1.30100
H671        H  0.29374510  0.29362346  0.95574949     0.32500
O672        O  0.28102569  0.28090447  0.96858311    -1.31500
C673        C  0.25097783  0.13263395  0.65547543    -0.21700
C674        C  0.24870347  0.10149760  0.64734435    -0.09800
C675        C  0.24643254  0.09372421  0.61599585     0.29100
C676        C  0.24673509  0.11658293  0.59362658    -0.21700
C677        C  0.24915279  0.14772464  0.60176404    -0.09800
C678        C  0.25124417  0.15548459  0.63311744     0.29100
F679        F  0.25380703  0.18511133  0.64244038    -0.20300
H680        H  0.25278852  0.13948140  0.67929081     0.17500
H681        H  0.24495372  0.10973964  0.56980682     0.17500
F682        F  0.24372753  0.06409289  0.60670079    -0.20300
C683        C  0.27255651  0.35131501  0.62494491    -0.21700
C684        C  0.25027320  0.35193446  0.60183121    -0.09800
C685        C  0.22840012  0.37552964  0.60169096     0.29100
C686        C  0.22907004  0.39833371  0.62426883    -0.21700
C687        C  0.25138803  0.39776549  0.64734180    -0.09800
C688        C  0.27328739  0.37418711  0.64747718     0.29100
F689        F  0.29594595  0.37390856  0.66872599    -0.20300
H690        H  0.28975434  0.33343210  0.62514787     0.17500
H691        H  0.21183884  0.41618549  0.62407746     0.17500
F692        F  0.20586160  0.37594711  0.58032537    -0.20300
C693        C  0.25524577  0.36695570  0.84363820    -0.21700
C694        C  0.24722094  0.39728558  0.85117137    -0.09800
C695        C  0.23897822  0.40408218  0.88168535     0.29100
C696        C  0.23948750  0.38117831  0.90403932    -0.21700
C697        C  0.24797578  0.35094889  0.89662024    -0.09800
C698        C  0.25568332  0.34403351  0.86596365     0.29100
F699        F  0.26443112  0.31534852  0.85749316    -0.20300
H700        H  0.26177687  0.36095110  0.82043490     0.17500
H701        H  0.23301251  0.38718044  0.92725606     0.17500
F702        F  0.23003898  0.43274095  0.89003239    -0.20300
C703        C  0.27150689  0.10074355  0.87540571    -0.21700
C704        C  0.24910712  0.10118529  0.85239496    -0.09800
C705        C  0.22709607  0.12464854  0.85235800     0.29100
C706        C  0.22793369  0.14768713  0.87473939    -0.21700
C707        C  0.25042554  0.14734368  0.89766859    -0.09800
C708        C  0.27228052  0.12371410  0.89785839     0.29100
F709        F  0.29490920  0.12343651  0.91913965    -0.20300
H710        H  0.28875154  0.08290634  0.87560594     0.17500
H711        H  0.21065778  0.16549250  0.87456202     0.17500
F712        F  0.20424877  0.12466046  0.83130874    -0.20300
C713        C  0.38167842  0.09538203  0.75997740    -0.21700
C714        C  0.35110534  0.10305515  0.75370054    -0.09800
C715        C  0.34385514  0.13412004  0.74828353     0.29100
C716        C  0.36672149  0.15654823  0.74848471    -0.21700
C717        C  0.39741782  0.14877392  0.75399650    -0.09800
C718        C  0.40455032  0.11781144  0.76017317     0.29100
F719        F  0.43360011  0.10899265  0.76652184    -0.20300
H720        H  0.38805443  0.07185026  0.76470107     0.17500
H721        H  0.36032615  0.18006583  0.74373271     0.17500
F722        F  0.31479451  0.14294710  0.74199736    -0.20300
C723        C  0.36852340  0.34511356  0.75314129    -0.21700
C724        C  0.39941069  0.35363433  0.75106549    -0.09800
C725        C  0.40670178  0.38509589  0.74923142     0.29100
C726        C  0.38355258  0.40715597  0.74910191    -0.21700
C727        C  0.35263489  0.39856661  0.75081045    -0.09800
C728        C  0.34541457  0.36713879  0.75309210     0.29100
F729        F  0.31607102  0.35740334  0.75541789    -0.20300
H730        H  0.36203362  0.32120693  0.75485531     0.17500
H731        H  0.38999037  0.43108376  0.74745779     0.17500
F732        F  0.43609528  0.39477731  0.74725059    -0.20300
C733        C  0.09386059  0.11701064  0.74957480    -0.21700
C734        C  0.10195030  0.14819947  0.75066334    -0.09800
C735        C  0.13324902  0.15593447  0.75145195     0.29100
C736        C  0.15554731  0.13300186  0.75102985    -0.21700
C737        C  0.14745331  0.10179385  0.74984976    -0.09800
C738        C  0.11617127  0.09407697  0.74920964     0.29100
F739        F  0.10685973  0.06439529  0.74825011    -0.20300
H740        H  0.07009834  0.11017407  0.74897200     0.17500
H741        H  0.17930388  0.13986255  0.75168122     0.17500
F742        F  0.14260155  0.18561389  0.75266142    -0.20300
C743        C  0.09530223  0.38239977  0.75424644    -0.21700
C744        C  0.10325703  0.35121376  0.75262730    -0.09800
C745        C  0.13448365  0.34326355  0.75126605     0.29100
C746        C  0.15684241  0.36608857  0.75056290    -0.21700
C747        C  0.14881351  0.39731457  0.75162664    -0.09800
C748        C  0.11765012  0.40517760  0.75399307     0.29100
F749        F  0.10848388  0.43485117  0.75626715    -0.20300
H750        H  0.07161097  0.38936825  0.75577683     0.17500
H751        H  0.18055328  0.35915631  0.74914315     0.17500
F752        F  0.14367234  0.31350937  0.75052272    -0.20300
C753        C  0.40615829  0.25141129  0.61713407    -0.21700
C754        C  0.39807024  0.25104654  0.64833743    -0.09800
C755        C  0.36675018  0.25036293  0.65600193     0.29100
C756        C  0.34444986  0.25002280  0.63305342    -0.21700
C757        C  0.35252892  0.25038133  0.60185903    -0.09800
C758        C  0.38384814  0.25104083  0.59417553     0.29100
F759        F  0.39320469  0.25129611  0.56450862    -0.20300
H760        H  0.42992453  0.25193073  0.61030426     0.17500
H761        H  0.32068713  0.24947999  0.63989372     0.17500
F762        F  0.35737139  0.24995982  0.68565511    -0.20300
C763        C  0.09457179  0.24605127  0.61780033    -0.21700
C764        C  0.10270525  0.24907072  0.64887121    -0.09800
C765        C  0.13397387  0.25181211  0.65628039     0.29100
C766        C  0.15616022  0.25162950  0.63319134    -0.21700
C767        C  0.14800172  0.24876924  0.60211269    -0.09800
C768        C  0.11675246  0.24588362  0.59471748     0.29100
F769        F  0.10735405  0.24277596  0.56521544    -0.20300
H770        H  0.07085187  0.24374575  0.61116767     0.17500
H771        H  0.17988257  0.25396197  0.63980819     0.17500
F772        F  0.14337578  0.25495803  0.68577616    -0.20300
C773        C  0.13271993  0.25173439  0.84428320    -0.21700
C774        C  0.10177397  0.25190310  0.85289516    -0.09800
C775        C  0.09444043  0.25239597  0.88436139     0.29100
C776        C  0.11753827  0.25238706  0.90638342    -0.21700
C777        C  0.14847824  0.25190983  0.89777936    -0.09800
C778        C  0.15582179  0.25176885  0.86630724     0.29100
F779        F  0.18525383  0.25153990  0.85654093    -0.20300
H780        H  0.13924555  0.25146618  0.82033737     0.17500
H781        H  0.11100936  0.25263456  0.93032770     0.17500
F782        F  0.06501277  0.25280061  0.89412660    -0.20300
C783        C  0.40569865  0.25152429  0.88323608    -0.21700
C784        C  0.39764700  0.25015710  0.85207623    -0.09800
C785        C  0.36642553  0.24822193  0.84425639     0.29100
C786        C  0.34413116  0.24776148  0.86711053    -0.21700
C787        C  0.35220563  0.24916089  0.89826747    -0.09800
C788        C  0.38341500  0.25101692  0.90607974     0.29100
F789        F  0.39268291  0.25249841  0.93574800    -0.20300
H790        H  0.42940839  0.25304876  0.89012619     0.13100
H791        H  0.32041029  0.24627822  0.86023994     0.17500
F792        F  0.35716040  0.24660335  0.81459272    -0.20300
C793        C  0.36862490  0.40474608  0.99199024    -0.21700
C794        C  0.39859857  0.39720305  0.50031659    -0.09800
C795        C  0.40517008  0.36661997  0.50840597     0.29100
C796        C  0.38213625  0.34442307  0.50808864    -0.21700
C797        C  0.35196327  0.35213996  0.50014842    -0.09800
C798        C  0.34553874  0.38264330  0.99195477     0.29100
F799        F  0.31696510  0.39131265  0.98355209    -0.20300
H800        H  0.36286654  0.42794122  0.98525185     0.17500
H801        H  0.38793739  0.32115983  0.51454867     0.17500
F802        F  0.43363253  0.35815052  0.51737279    -0.20300
C803        C  0.34430608  0.11708821  0.99246273    -0.21700
C804        C  0.35212754  0.14799139  0.49834524    -0.09800
C805        C  0.38316383  0.15538471  0.50290324     0.29100
C806        C  0.40539473  0.13239882  0.50264799    -0.21700
C807        C  0.39745641  0.10149000  0.49791199    -0.09800
C808        C  0.36657599  0.09410764  0.99208446     0.29100
F809        F  0.35770850  0.06490252  0.98587792    -0.20300
H810        H  0.32082836  0.11068217  0.98799646     0.17500
H811        H  0.42893893  0.13892884  0.50654051     0.17500
F812        F  0.39224626  0.18472160  0.50808957    -0.20300
C813        C  0.13243860  0.40558411  0.50727491    -0.21700
C814        C  0.10225486  0.39800864  0.49932238    -0.09800
C815        C  0.09551382  0.36723959  0.99192892     0.29100
C816        C  0.11835584  0.34488165  0.99229692    -0.21700
C817        C  0.14845772  0.35252307  0.49999749    -0.09800
C818        C  0.15530242  0.38320811  0.50767838     0.29100
F819        F  0.18394630  0.39168388  0.51604926    -0.20300
H820        H  0.13839584  0.42888850  0.51354775     0.17500
H821        H  0.11234996  0.32158282  0.98605237     0.17500
F822        F  0.06689548  0.35873179  0.98356897    -0.20300
C823        C  0.15512712  0.11739902  0.49957501    -0.21700
C824        C  0.14705713  0.14859657  0.49864378    -0.09800
C825        C  0.11576921  0.15634830  0.99880628     0.29100
C826        C  0.09346420  0.13341234  0.99928245    -0.21700
C827        C  0.10154449  0.10223491  0.49924677    -0.09800
C828        C  0.13283919  0.09449613  0.49971020     0.29100
F829        F  0.14221164  0.06481144  0.50029473    -0.20300
H830        H  0.17887938  0.11051356  0.50023457     0.17500
H831        H  0.06969378  0.14026232  0.99983726     0.17500
F832        F  0.10640770  0.18604837  0.99867624    -0.20300
C833        C  0.36717792  0.99767960  0.90551341    -0.21700
C834        C  0.39817306  0.99876676  0.89714799    -0.09800
C835        C  0.40562004  0.49983244  0.86570057     0.29100
C836        C  0.38259392  0.49995347  0.84352389    -0.21700
C837        C  0.35158357  0.99905847  0.85190167    -0.09800
C838        C  0.34415958  0.99787303  0.88333051     0.29100
F839        F  0.31468633  0.99702259  0.89290438    -0.20300
H840        H  0.36054808  0.99680396  0.92940951     0.17500
H841        H  0.38922507  0.50090616  0.81962762     0.17500
F842        F  0.43508141  0.50097532  0.85608817    -0.20300
C843        C  0.15497838  0.99558434  0.88166858    -0.21700
C844        C  0.14698607  0.99820687  0.85057883    -0.09800
C845        C  0.11574789  0.50015536  0.84285297     0.29100
C846        C  0.09342658  0.50010206  0.86576714    -0.21700
C847        C  0.10147414  0.99815092  0.89690840    -0.09800
C848        C  0.13267823  0.99554636  0.90455042     0.29100
F849        F  0.14193340  0.99291064  0.93412368    -0.20300
H850        H  0.17867380  0.99356246  0.88848112     0.17500
H851        H  0.06970713  0.50189147  0.85897369     0.17500
F852        F  0.10651808  0.50250164  0.81323218    -0.20300
C853        C  0.09508734  0.50687153  0.63173832    -0.21700
C854        C  0.10283231  0.00196254  0.60085362    -0.09800
C855        C  0.13385348  0.99746980  0.59326609     0.29100
C856        C  0.15619602  0.99747904  0.61613830    -0.21700
C857        C  0.14837185  0.00207807  0.64706771    -0.09800
C858        C  0.11744390  0.50707799  0.65457355     0.29100
F859        F  0.10858811  0.51246659  0.68392227    -0.20300
H860        H  0.07156404  0.51069553  0.63838825     0.17500
H861        H  0.17971064  0.99352574  0.60952293     0.17500
F862        F  0.14280357  0.99259309  0.56385481    -0.20300
C863        C  0.38280981  0.50025547  0.65582235    -0.21700
C864        C  0.35186023  0.99791277  0.64749418    -0.09800
C865        C  0.34450987  0.99470853  0.61614990     0.29100
C866        C  0.36749184  0.99487506  0.59393705    -0.21700
C867        C  0.39838126  0.99800394  0.60220424    -0.09800
C868        C  0.40581101  0.50025975  0.63362625     0.29100
F869        F  0.43522192  0.50268218  0.64315930    -0.20300
H870        H  0.38939587  0.50224615  0.67967563     0.17500
H871        H  0.36093467  0.99244907  0.57011365     0.17500
F872        F  0.31517389  0.99123116  0.60670245    -0.20300
C873        C  0.51053455  0.13177505  0.90529427    -0.21700
C874        C  0.99841210  0.10264241  0.89863545    -0.09800
C875        C  0.98651421  0.09701873  0.86917004     0.29100
C876        C  0.98697074  0.12002585  0.84694999    -0.21700
C877        C  0.99924981  0.14908969  0.85352183    -0.09800
C878        C  0.51114900  0.15474762  0.88301108     0.29100
F879        F  0.52426624  0.18208591  0.89012035    -0.20300
H880        H  0.52016292  0.13664020  0.92766453     0.17500
H881        H  0.97737886  0.11512883  0.82457406     0.17500
F882        F  0.97384966  0.06951858  0.86191465    -0.20300
C883        C  0.51957380  0.34898027  0.87878842    -0.21700
C884        C  0.00160648  0.35270201  0.85242293    -0.09800
C885        C  0.98375166  0.37928040  0.84907499     0.29100
C886        C  0.98399654  0.40180295  0.87182022    -0.21700
C887        C  0.00193241  0.39809550  0.89819445    -0.09800
C888        C  0.51991101  0.37158774  0.90148722     0.29100
F889        F  0.53849906  0.36802401  0.92611410    -0.20300
H890        H  0.53373459  0.32877769  0.88154581     0.17500
H891        H  0.96974501  0.42194335  0.86908119     0.17500
F892        F  0.96531492  0.38299316  0.82433114    -0.20300
C893        C  0.99948422  0.34415932  0.61783022    -0.21700
C894        C  0.99898555  0.35272129  0.64893108    -0.09800
C895        C  0.49788610  0.38422418  0.65637764     0.29100
C896        C  0.49779050  0.40630082  0.63323421    -0.21700
C897        C  0.99865665  0.39773771  0.60212533    -0.09800
C898        C  0.99923934  0.36622489  0.59469383     0.29100
F899        F  0.99970824  0.35644636  0.56512510    -0.20300
H900        H  0.00015727  0.32020455  0.61120327     0.17500
H901        H  0.49709317  0.43025782  0.63985215     0.17500
F902        F  0.49688955  0.39397158  0.68595136    -0.20300
C903        C  0.99916130  0.09388670  0.63365930    -0.21700
C904        C  0.00055744  0.10210550  0.60253064    -0.09800
C905        C  0.50207060  0.13352039  0.59497071     0.29100
C906        C  0.50203597  0.15584724  0.61798599    -0.21700
C907        C  0.00054676  0.14764431  0.64910789    -0.09800
C908        C  0.99913505  0.11622765  0.65668695     0.29100
F909        F  0.99757704  0.10683113  0.68629324    -0.20300
H910        H  0.99795615  0.07001278  0.64036884     0.17500
H911        H  0.50321929  0.17971536  0.61125250     0.17500
F912        F  0.50370553  0.14294359  0.56537835    -0.20300
O913        O  0.00047576  0.54962470  0.08714901    -0.86900
O914        O  0.99833349  0.55029273  0.41339198    -0.87100
O915        O  0.04933090  0.58704331  0.00030001    -0.88800
O916        O  0.44968421  0.58635075  0.99892907    -0.87500
O917        O  0.41289567  0.54899765  0.99848282    -0.87100
O918        O  0.08626788  0.54985420  0.99897710    -0.88500
O919        O  0.99897125  0.58739233  0.45077368    -0.86900
O920        O  0.99995595  0.58665273  0.05000391    -0.86500
Zr921      Zr  0.99965587  0.56160304  0.00004286     2.84300
O922        O  0.46877882  0.53084389  0.46899516    -1.08500
O923        O  0.03088186  0.53087624  0.03067228    -1.09200
C924        C  0.00037939  0.57789514  0.07826356     1.06200
C925        C  0.99833000  0.57855690  0.42249281     1.06100
C926        C  0.07750695  0.57813878  0.99948562     1.09100
C927        C  0.42156465  0.57731698  0.99830889     1.06900
H928        H  0.04320779  0.54409933  0.45579208     0.32500
O929        O  0.03061362  0.53124937  0.46862774    -1.29500
H930        H  0.45596891  0.54341717  0.04385511     0.32100
O931        O  0.46882584  0.53070515  0.03105132    -1.31100
O932        O  0.99989457  0.95005722  0.41309563    -0.86900
O933        O  0.99951743  0.95001064  0.08678022    -0.88400
O934        O  0.08604645  0.49929069  0.44929063    -0.87000
O935        O  0.41325033  0.49932766  0.44978621    -0.87000
O936        O  0.41345771  0.49837545  0.04966060    -0.86700
O937        O  0.08708916  0.50098478  0.04867462    -0.86600
O938        O  0.05021339  0.91306779  0.00003754    -0.86900
O939        O  0.45094365  0.91230380  0.00015898    -0.86400
O940        O  0.08710836  0.95029903  0.99888319    -0.87500
O941        O  0.41376594  0.94934264  0.99979858    -0.86600
O942        O  0.04910995  0.49926779  0.41214720    -0.87000
O943        O  0.05048186  0.50091494  0.08621153    -0.86700
O944        O  0.45057048  0.49866118  0.08668907    -0.86400
O945        O  0.45019528  0.49952399  0.41265542    -0.86800
O946        O  0.00212179  0.91287110  0.45026394    -0.87100
O947        O  0.99943463  0.91284814  0.04958274    -0.88400
Zr948      Zr  0.99969490  0.50003346  0.43798550     2.83100
Zr949      Zr  0.00029179  0.49984690  0.06161769     2.83500
Zr950      Zr  0.06145466  0.49996085  0.99929902     2.84100
Zr951      Zr  0.43844971  0.49939926  0.99967969     2.83400
Zr952      Zr  0.00041849  0.93801486  0.99986822     2.84200
O953        O  0.46940713  0.96877606  0.03074391    -1.09000
O954        O  0.03070013  0.96892621  0.46856284    -1.08500
C955        C  0.00133419  0.92190160  0.42211671     1.06200
C956        C  0.99915195  0.92170920  0.07784963     1.08800
C957        C  0.07728995  0.49901791  0.42101033     1.06300
C958        C  0.42205494  0.49933772  0.42147482     1.06700
C959        C  0.42238463  0.49818837  0.07793200     1.06300
C960        C  0.07858003  0.50122454  0.07699924     1.05800
C961        C  0.07832840  0.92198903  0.99936311     1.06300
C962        C  0.42274765  0.92109865  0.00015347     1.05800
H963        H  0.04426137  0.95613438  0.04363610     0.32400
O964        O  0.03140527  0.96881731  0.03087320    -1.30100
H965        H  0.45654552  0.95556890  0.45599380     0.32500
O966        O  0.46917539  0.96852553  0.46876024    -1.31500
O967        O  0.00076259  0.70009850  0.16389893    -0.86900
O968        O  0.00000583  0.70142225  0.33822702    -0.87100
O969        O  0.04968405  0.66332209  0.25049335    -0.88800
O970        O  0.44992954  0.66374530  0.25223633    -0.87500
O971        O  0.41306757  0.70106262  0.25189017    -0.87100
O972        O  0.08660888  0.70048605  0.25078848    -0.88500
O973        O  0.99892230  0.66399244  0.30119163    -0.86900
O974        O  0.00004682  0.66323847  0.20124882    -0.86500
Zr975      Zr  0.99984478  0.68862794  0.25100948     2.84300
O976        O  0.46909802  0.71993462  0.28166133    -1.08500
O977        O  0.03082513  0.71910606  0.21980768    -1.09200
C978        C  0.00050009  0.67187026  0.17294670     1.06200
C979        C  0.99932646  0.67312151  0.32942948     1.06100
C980        C  0.07787368  0.67223181  0.25050274     1.09100
C981        C  0.42178002  0.67269146  0.25262597     1.06900
H982        H  0.04364446  0.70654035  0.29491463     0.32500
O983        O  0.03094657  0.71929264  0.28207303    -1.29500
H984        H  0.45635663  0.70653924  0.20679953     0.32100
O985        O  0.46919130  0.71935105  0.21950241    -1.31100
O986        O  0.00162128  0.80064256  0.33769790    -0.86900
O987        O  0.99971600  0.80027630  0.16385178    -0.88400
O988        O  0.08655373  0.75122129  0.30053578    -0.87000
O989        O  0.41330819  0.75076149  0.29982946    -0.87000
O990        O  0.41366596  0.75115377  0.20047306    -0.86700
O991        O  0.08714912  0.74966396  0.20113695    -0.86600
O992        O  0.05088323  0.83677356  0.25160953    -0.86900
O993        O  0.45151566  0.83816165  0.25076142    -0.86400
O994        O  0.08739831  0.79918265  0.25166541    -0.87500
O995        O  0.41440171  0.80116219  0.25026889    -0.86600
O996        O  0.04961549  0.75126114  0.33766144    -0.87000
O997        O  0.05040255  0.74951418  0.16376565    -0.86700
O998        O  0.45058117  0.75085785  0.16328983    -0.86400
O999        O  0.45002747  0.75049128  0.33722630    -0.86800
O1000       O  0.00080096  0.83771809  0.30039117    -0.87100
O1001       O  0.99995878  0.83749288  0.20103106    -0.88400
Zr1002     Zr  0.00004484  0.75084385  0.31250686     2.83100
Zr1003     Zr  0.00036023  0.75025342  0.18871938     2.83500
Zr1004     Zr  0.06151462  0.75010181  0.25077628     2.84100
Zr1005     Zr  0.43873172  0.75085675  0.25035632     2.83400
Zr1006     Zr  0.00074344  0.81231189  0.25068068     2.84200
O1007       O  0.46970853  0.78163068  0.21952244    -1.09000
O1008       O  0.03128358  0.78153694  0.28185793    -1.08500
C1009       C  0.00134653  0.82879290  0.32858545     1.06200
C1010       C  0.99951225  0.82859211  0.17278106     1.08800
C1011       C  0.07773529  0.75152106  0.32879024     1.06300
C1012       C  0.42190735  0.75041591  0.32812259     1.06700
C1013       C  0.42238386  0.75113435  0.17217926     1.06300
C1014       C  0.07856940  0.74941383  0.17278789     1.05800
C1015       C  0.07895246  0.82751265  0.25191982     1.06300
C1016       C  0.42335190  0.82942631  0.25055420     1.05800
H1017       H  0.04431907  0.79406698  0.20675035     0.32400
O1018       O  0.03145012  0.78137526  0.21945930    -1.30100
H1019       H  0.45667449  0.79485912  0.29440651     0.32500
O1020       O  0.46934746  0.78195290  0.28163083    -1.31500
O1021       O  0.33663152  0.99909378  0.19986035    -0.86900
O1022       O  0.16362386  0.00070404  0.19920432    -0.87100
O1023       O  0.24970416  0.94974530  0.16231655    -0.88800
O1024       O  0.24983434  0.54923158  0.16267511    -0.87500
O1025       O  0.24916163  0.58660793  0.19969631    -0.87100
O1026       O  0.25256512  0.91254006  0.19942928    -0.88500
O1027       O  0.20062434  0.00062834  0.16210758    -0.86900
O1028       O  0.29969350  0.99834797  0.16269555    -0.86500
Zr1029     Zr  0.25008213  0.99959377  0.18776509     2.84300
O1030       O  0.21911831  0.53079238  0.21838074    -1.08500
O1031       O  0.28121156  0.96891472  0.21854719    -1.09200
C1032       C  0.32782826  0.99830320  0.17155380     1.06200
C1033       C  0.17246152  0.00110931  0.17096842     1.06100
C1034       C  0.25138525  0.92157229  0.17126283     1.09100
C1035       C  0.24935017  0.57753414  0.17143095     1.06900
H1036       H  0.20642029  0.95546016  0.20525043     0.32500
O1037       O  0.21909474  0.96830764  0.21809051    -1.29500
H1038       H  0.29360376  0.54397240  0.20594863     0.32100
O1039       O  0.28080568  0.53115879  0.21862467    -1.31100
O1040       O  0.16265270  0.99897924  0.29832844    -0.86900
O1041       O  0.33635553  0.00006191  0.29969722    -0.88400
O1042       O  0.20100380  0.91231742  0.24975899    -0.87000
O1043       O  0.19983159  0.58696794  0.24929685    -0.87000
O1044       O  0.29915405  0.58715710  0.25176294    -0.86700
O1045       O  0.30024701  0.91330545  0.25001144    -0.86600
O1046       O  0.24783944  0.94999375  0.33636655    -0.86900
O1047       O  0.25027865  0.54954307  0.33707489    -0.86400
O1048       O  0.24884366  0.91281739  0.29912508    -0.87500
O1049       O  0.24802102  0.58683936  0.29997452    -0.86600
O1050       O  0.16411133  0.94958204  0.25006277    -0.87000
O1051       O  0.33698122  0.95066806  0.24979439    -0.86700
O1052       O  0.33647983  0.55030621  0.25172415    -0.86400
O1053       O  0.16320552  0.54949742  0.24900923    -0.86800
O1054       O  0.19927343  0.99925446  0.33580921    -0.87100
O1055       O  0.29919005  0.99960003  0.33662464    -0.88400
Zr1056     Zr  0.18852227  0.99968375  0.24906223     2.83100
Zr1057     Zr  0.31144079  0.00027248  0.24980065     2.83500
Zr1058     Zr  0.25037574  0.93795608  0.24930159     2.84100
Zr1059     Zr  0.24953275  0.56180139  0.24979606     2.83400
Zr1060     Zr  0.24948911  0.99985303  0.31136073     2.84200
O1061       O  0.28038699  0.53106726  0.28084751    -1.09000
O1062       O  0.21919248  0.96879470  0.28005509    -1.08500
C1063       C  0.17115945  0.99887207  0.32665727     1.06200
C1064       C  0.32740177  0.99976346  0.32792433     1.08800
C1065       C  0.17287819  0.92129292  0.25037037     1.06300
C1066       C  0.17173974  0.57786813  0.24913782     1.06700
C1067       C  0.32740273  0.57855671  0.25232504     1.06300
C1068       C  0.32833016  0.92233279  0.25002254     1.05800
C1069       C  0.24778713  0.92171950  0.32740302     1.06300
C1070       C  0.24907472  0.57774875  0.32814736     1.05800
H1071       H  0.29350664  0.95614158  0.29359152     0.32400
O1072       O  0.28086343  0.96892369  0.28071576    -1.30100
H1073       H  0.20562309  0.54354343  0.29335010     0.32500
O1074       O  0.21856826  0.53088126  0.28060028    -1.31500
O1075       O  0.19953915  0.66337139  0.49903309    -0.86900
O1076       O  0.20055296  0.83725182  0.49983127    -0.87100
O1077       O  0.16352633  0.74914351  0.04959005    -0.88800
O1078       O  0.16366698  0.75114696  0.44991964    -0.87500
O1079       O  0.20062952  0.75082778  0.41281745    -0.87100
O1080       O  0.20047895  0.74939943  0.08676227    -0.88500
O1081       O  0.16352172  0.80013451  0.49972689    -0.86900
O1082       O  0.16280307  0.70080979  0.49933087    -0.86500
Zr1083     Zr  0.18858636  0.75015041  0.49979397     2.84300
O1084       O  0.21926529  0.78092924  0.46873325    -1.08500
O1085       O  0.21934610  0.71895755  0.03065954    -1.09200
C1086       C  0.17137425  0.67247704  0.49902388     1.06200
C1087       C  0.17242187  0.82841714  0.49984003     1.06100
C1088       C  0.17227398  0.74901472  0.07788270     1.09100
C1089       C  0.17251503  0.75131647  0.42166393     1.06900
H1090       H  0.20661561  0.79386447  0.04368487     0.32500
O1091       O  0.21937104  0.78111934  0.03082860    -1.29500
H1092       H  0.20615937  0.70601032  0.45570855     0.32100
O1093       O  0.21894422  0.71869667  0.46858641    -1.31100
O1094       O  0.29973330  0.83709742  0.50000098    -0.86900
O1095       O  0.29986016  0.66293629  0.49889774    -0.88400
O1096       O  0.25154921  0.80007562  0.08660654    -0.87000
O1097       O  0.24914899  0.79902563  0.41237979    -0.87000
O1098       O  0.24919232  0.69969660  0.41252037    -0.86700
O1099       O  0.24987341  0.70007119  0.08633124    -0.86600
O1100       O  0.33710183  0.75023105  0.04928765    -0.86900
O1101       O  0.33670555  0.74939844  0.45039370    -0.86400
O1102       O  0.30032730  0.74996590  0.08657659    -0.87500
O1103       O  0.29994928  0.74895899  0.41306953    -0.86600
O1104       O  0.24923710  0.83732452  0.04944051    -0.87000
O1105       O  0.24944292  0.66266573  0.04933241    -0.86700
O1106       O  0.25151762  0.66244864  0.44963880    -0.86400
O1107       O  0.24853637  0.83648384  0.44935799    -0.86800
O1108       O  0.33668486  0.79983841  0.49999893    -0.87100
O1109       O  0.33666126  0.70028198  0.49916381    -0.88400
Zr1110     Zr  0.25002772  0.81191128  0.49972063     2.83100
Zr1111     Zr  0.24989755  0.68784674  0.49953574     2.83500
Zr1112     Zr  0.25033998  0.75000998  0.06152080     2.84100
Zr1113     Zr  0.25010364  0.74959966  0.43801031     2.83400
Zr1114     Zr  0.31141878  0.74999906  0.49989142     2.84200
O1115       O  0.28094557  0.71870553  0.46880110    -1.09000
O1116       O  0.28107172  0.78121647  0.03079340    -1.08500
C1117       C  0.32787601  0.82815363  0.50002396     1.06200
C1118       C  0.32799770  0.67197073  0.49882261     1.08800
C1119       C  0.25040153  0.82827661  0.07761208     1.06300
C1120       C  0.24846877  0.82734677  0.42109066     1.06700
C1121       C  0.25046232  0.67148798  0.42146873     1.06300
C1122       C  0.24951328  0.67174228  0.07757312     1.05800
C1123       C  0.32849564  0.75016886  0.07758947     1.06300
C1124       C  0.32807040  0.74908227  0.42211858     1.05800
H1125       H  0.29380059  0.70584206  0.04341958     0.32400
O1126       O  0.28101033  0.71862507  0.03069953    -1.30100
H1127       H  0.29367678  0.79377027  0.45581877     0.32500
O1128       O  0.28097164  0.78102796  0.46864407    -1.31500
C1129       C  0.24843043  0.63264550  0.15544857    -0.21700
C1130       C  0.24913769  0.60144879  0.14721908    -0.09800
C1131       C  0.24976204  0.59366163  0.11579806     0.29100
C1132       C  0.24987161  0.61657379  0.09349006    -0.21700
C1133       C  0.24928380  0.64778018  0.10173731    -0.09800
C1134       C  0.24851671  0.65554882  0.13314235     0.29100
F1135       F  0.24785893  0.68524579  0.14257932    -0.20300
H1136       H  0.24786113  0.63952130  0.17931729     0.17500
H1137       H  0.25046048  0.60970367  0.06961859     0.17500
F1138       F  0.25030134  0.56395890  0.10634770    -0.20300
C1139       C  0.27272569  0.85142961  0.12474061    -0.21700
C1140       C  0.25050848  0.85210929  0.10155802    -0.09800
C1141       C  0.22863459  0.87570831  0.10144062     0.29100
C1142       C  0.22921944  0.89842120  0.12412416    -0.21700
C1143       C  0.25144881  0.89776713  0.14728987    -0.09800
C1144       C  0.27337521  0.87421503  0.14737349     0.29100
F1145       F  0.29599430  0.87388817  0.16866246    -0.20300
H1146       H  0.28992792  0.83355107  0.12493492     0.17500
H1147       H  0.21198927  0.91627459  0.12393668     0.17500
F1148       F  0.20615496  0.87620072  0.08001363    -0.20300
C1149       C  0.25429387  0.86710058  0.34371275    -0.21700
C1150       C  0.24687148  0.89756126  0.35134412    -0.09800
C1151       C  0.23913576  0.90447188  0.38197194     0.29100
C1152       C  0.23964366  0.88156251  0.40433425    -0.21700
C1153       C  0.24759552  0.85120499  0.39681300    -0.09800
C1154       C  0.25469319  0.84417329  0.36603077     0.29100
F1155       F  0.26278178  0.81534329  0.35739500    -0.20300
H1156       H  0.26037170  0.86097236  0.32041834     0.17500
H1157       H  0.23361532  0.88767343  0.42764361     0.17500
F1158       F  0.23072875  0.93325738  0.39043976    -0.20300
C1159       C  0.27163128  0.60122207  0.37502538    -0.21700
C1160       C  0.24910802  0.60156290  0.35213534    -0.09800
C1161       C  0.22696296  0.62490237  0.35224623     0.29100
C1162       C  0.22775177  0.64787872  0.37469942    -0.21700
C1163       C  0.25033524  0.64759413  0.39754150    -0.09800
C1164       C  0.27235561  0.62412618  0.39754469     0.29100
F1165       F  0.29507697  0.62393455  0.41872648    -0.20300
H1166       H  0.28898549  0.58349138  0.37510145     0.17500
H1167       H  0.21037148  0.66558308  0.37464892     0.17500
F1168       F  0.20402987  0.62483872  0.33129127    -0.20300
C1169       C  0.38186683  0.59518307  0.25952699    -0.21700
C1170       C  0.35125392  0.60293237  0.25353605    -0.09800
C1171       C  0.34400309  0.63403629  0.24835268     0.29100
C1172       C  0.36689772  0.65642794  0.24849363    -0.21700
C1173       C  0.39762175  0.64859086  0.25374413    -0.09800
C1174       C  0.40476779  0.61758197  0.25968263     0.29100
F1175       F  0.43385218  0.60868407  0.26576029    -0.20300
H1176       H  0.38825193  0.57161613  0.26406157     0.17500
H1177       H  0.36048837  0.67998023  0.24393584     0.17500
F1178       F  0.31490205  0.64295389  0.24239499    -0.20300
C1179       C  0.36838020  0.84491211  0.25045485    -0.21700
C1180       C  0.39932382  0.85349860  0.25073162    -0.09800
C1181       C  0.40663619  0.88501372  0.25115406     0.29100
C1182       C  0.38348649  0.90707481  0.25099588    -0.21700
C1183       C  0.35253465  0.89844486  0.25045526    -0.09800
C1184       C  0.34526402  0.86693623  0.25035764     0.29100
F1185       F  0.31585819  0.85710700  0.25012868    -0.20300
H1186       H  0.36184483  0.82095241  0.25025571     0.17500
H1187       H  0.38996491  0.93105161  0.25124476     0.17500
F1188       F  0.43606934  0.89477107  0.25162635    -0.20300
C1189       C  0.09395821  0.61706789  0.24888733    -0.21700
C1190       C  0.10205108  0.64824846  0.25016563    -0.09800
C1191       C  0.13334551  0.65598376  0.25104029     0.29100
C1192       C  0.15564010  0.63305330  0.25061857    -0.21700
C1193       C  0.14753978  0.60185357  0.24934169    -0.09800
C1194       C  0.11626303  0.59413750  0.24851117     0.29100
F1195       F  0.10695065  0.56446083  0.24737085    -0.20300
H1196       H  0.07019818  0.61023412  0.24816696     0.17500
H1197       H  0.17939567  0.63990656  0.25138273     0.17500
F1198       F  0.14269536  0.68565828  0.25237025    -0.20300
C1199       C  0.09534957  0.88236067  0.25453417    -0.21700
C1200       C  0.10328425  0.85120448  0.25234924    -0.09800
C1201       C  0.13448840  0.84327714  0.25043610     0.29100
C1202       C  0.15683496  0.86611626  0.24978741    -0.21700
C1203       C  0.14881844  0.89732309  0.25145659    -0.09800
C1204       C  0.11769225  0.90514342  0.25434245     0.29100
F1205       F  0.10856895  0.93477550  0.25724507    -0.20300
H1206       H  0.07168130  0.88929629  0.25650936     0.17500
H1207       H  0.18052401  0.85921281  0.24792161     0.17500
F1208       F  0.14366142  0.81353673  0.24907550    -0.20300
C1209       C  0.40631948  0.74918667  0.11692932    -0.21700
C1210       C  0.39822156  0.75116462  0.14808044    -0.09800
C1211       C  0.36692621  0.75285024  0.15567491     0.29100
C1212       C  0.34464470  0.75240845  0.13272056    -0.21700
C1213       C  0.35272733  0.75038303  0.10158757    -0.09800
C1214       C  0.38402374  0.74875043  0.09396032     0.29100
F1215       F  0.39335516  0.74652583  0.06435851    -0.20300
H1216       H  0.43007135  0.74779917  0.11016099     0.17500
H1217       H  0.32089598  0.75378975  0.13950096     0.17500
F1218       F  0.35756070  0.75507006  0.18525801    -0.20300
C1219       C  0.09474692  0.74545849  0.11768245    -0.21700
C1220       C  0.10279173  0.74903415  0.14871769    -0.09800
C1221       C  0.13401370  0.75224786  0.15613803     0.29100
C1222       C  0.15624053  0.75203920  0.13308830    -0.21700
C1223       C  0.14816695  0.74866074  0.10204214    -0.09800
C1224       C  0.11697145  0.74523181  0.09464030     0.29100
F1225       F  0.10767752  0.74149505  0.06517494    -0.20300
H1226       H  0.07106952  0.74273033  0.11105495     0.17500
H1227       H  0.17992073  0.75478002  0.13970208     0.17500
F1228       F  0.14332213  0.75591280  0.18560448    -0.20300
C1229       C  0.13275714  0.75096668  0.34416287    -0.21700
C1230       C  0.10181554  0.75201492  0.35272987    -0.09800
C1231       C  0.09447539  0.75338215  0.38417212     0.29100
C1232       C  0.11755302  0.75330656  0.40622464    -0.21700
C1233       C  0.14848328  0.75193746  0.39767494    -0.09800
C1234       C  0.15584020  0.75095801  0.36621331     0.29100
F1235       F  0.18526397  0.74980241  0.35648402    -0.20300
H1236       H  0.13928968  0.74999504  0.32023483     0.17500
H1237       H  0.11101815  0.75426345  0.43015135     0.17500
F1238       F  0.06505821  0.75478891  0.39388070    -0.20300
C1239       C  0.40571158  0.75204754  0.38312333    -0.21700
C1240       C  0.39769967  0.74992497  0.35198769    -0.09800
C1241       C  0.36652118  0.74721859  0.34423006     0.29100
C1242       C  0.34421835  0.74688907  0.36710044    -0.21700
C1243       C  0.35224154  0.74911418  0.39823031    -0.09800
C1244       C  0.38342534  0.75161270  0.40598887     0.29100
F1245       F  0.39265830  0.75383749  0.43562343    -0.20300
H1246       H  0.42939021  0.75414745  0.38997191     0.13100
H1247       H  0.32053107  0.74480717  0.36026990     0.17500
F1248       F  0.35732050  0.74465393  0.31461123    -0.20300
C1249       C  0.36847031  0.90485799  0.49220456    -0.21700
C1250       C  0.39869411  0.89710803  0.00033572    -0.09800
C1251       C  0.40511845  0.86668556  0.00909302     0.29100
C1252       C  0.38211052  0.84445602  0.00866107    -0.21700
C1253       C  0.35209661  0.85202177  0.00000452    -0.09800
C1254       C  0.34539427  0.88274535  0.49216425     0.29100
F1255       F  0.31678345  0.89143720  0.48391423    -0.20300
H1256       H  0.36266721  0.92808457  0.48561491     0.17500
H1257       H  0.38777795  0.82130670  0.01562555     0.17500
F1258       F  0.43338351  0.85844747  0.01886706    -0.20300
C1259       C  0.34421699  0.61708490  0.49353317    -0.21700
C1260       C  0.35215034  0.64784439  0.99826393    -0.09800
C1261       C  0.38308342  0.65514701  0.00358362     0.29100
C1262       C  0.40532833  0.63217620  0.00327690    -0.21700
C1263       C  0.39749947  0.60137651  0.99772260    -0.09800
C1264       C  0.36647234  0.59410163  0.49324320     0.29100
F1265       F  0.35743520  0.56474427  0.48811269    -0.20300
H1266       H  0.32064721  0.61055164  0.48980988     0.17500
H1267       H  0.42878632  0.63861352  0.00780197     0.17500
F1268       F  0.39202563  0.68436753  0.00961521    -0.20300
C1269       C  0.13257655  0.90553566  0.00716540    -0.21700
C1270       C  0.10234965  0.89793268  0.99939479    -0.09800
C1271       C  0.09545954  0.86732874  0.49160474     0.29100
C1272       C  0.11829589  0.84496195  0.49203880    -0.21700
C1273       C  0.14858198  0.85245506  0.99995476    -0.09800
C1274       C  0.15544982  0.88316231  0.00752654     0.29100
F1275       F  0.18412600  0.89166182  0.01576070    -0.20300
H1276       H  0.13856423  0.92886170  0.01332567     0.17500
H1277       H  0.11229774  0.82165988  0.48579909     0.17500
F1278       F  0.06686250  0.85883628  0.48316267    -0.20300
C1279       C  0.15518135  0.61734985  0.99738881    -0.21700
C1280       C  0.14712347  0.64855460  0.99836508    -0.09800
C1281       C  0.11577741  0.65633194  0.49776096     0.29100
C1282       C  0.09345853  0.63341334  0.49825138    -0.21700
C1283       C  0.10161795  0.60218203  0.99886891    -0.09800
C1284       C  0.13288781  0.59444994  0.99743607     0.29100
F1285       F  0.14222602  0.56478036  0.99594576    -0.20300
H1286       H  0.17892661  0.61045765  0.99653988     0.17500
H1287       H  0.06968651  0.64025641  0.49769756     0.17500
F1288       F  0.10644383  0.68599760  0.49622814    -0.20300
C1289       C  0.36698975  0.49907667  0.40572804    -0.21700
C1290       C  0.39800376  0.49910918  0.39734713    -0.09800
C1291       C  0.40547057  0.99901639  0.36585104     0.29100
C1292       C  0.38246068  0.99913675  0.34365686    -0.21700
C1293       C  0.35141762  0.49941360  0.35208249    -0.09800
C1294       C  0.34397405  0.49929897  0.38353525     0.29100
F1295       F  0.31449139  0.49959656  0.39311991    -0.20300
H1296       H  0.36034707  0.49904793  0.42963910     0.17500
H1297       H  0.38912043  0.99906742  0.31974710     0.17500
F1298       F  0.43495257  0.99888725  0.35623164    -0.20300
C1299       C  0.15496801  0.49845810  0.38170889    -0.21700
C1300       C  0.14687212  0.49839055  0.35052704    -0.09800
C1301       C  0.11557896  0.99841303  0.34277932     0.29100
C1302       C  0.09326919  0.99844908  0.36572207    -0.21700
C1303       C  0.10139679  0.49851722  0.39692466    -0.09800
C1304       C  0.13269870  0.49855671  0.40461566     0.29100
F1305       F  0.14209905  0.49886534  0.43426540    -0.20300
H1306       H  0.17872907  0.49858767  0.38858753     0.17500
H1307       H  0.06949423  0.99853534  0.35888946     0.17500
F1308       F  0.10626059  0.99849287  0.31308849    -0.20300
C1309       C  0.09543216  0.00860561  0.13136616    -0.21700
C1310       C  0.10291136  0.50178913  0.10075037    -0.09800
C1311       C  0.13368248  0.49557146  0.09336184     0.29100
C1312       C  0.15605741  0.49561743  0.11621115    -0.21700
C1313       C  0.14849052  0.50193046  0.14690493    -0.09800
C1314       C  0.11783879  0.00883918  0.15416542     0.29100
F1315       F  0.10939395  0.01620279  0.18321146    -0.20300
H1316       H  0.07213963  0.01397316  0.13777724     0.17500
H1317       H  0.17936293  0.49028793  0.10980699     0.17500
F1318       F  0.14229286  0.48885745  0.06420378    -0.20300
C1319       C  0.38282524  0.99991445  0.15570662    -0.21700
C1320       C  0.35190266  0.49757090  0.14747534    -0.09800
C1321       C  0.34445855  0.49531397  0.11606469     0.29100
C1322       C  0.36742326  0.49544576  0.09382222    -0.21700
C1323       C  0.39839251  0.49760094  0.10210624    -0.09800
C1324       C  0.40579094  0.99988068  0.13347024     0.29100
F1325       F  0.43521094  0.00235801  0.14295500    -0.20300
H1326       H  0.38944407  0.00199602  0.17954300     0.17500
H1327       H  0.36078040  0.49382701  0.06995668     0.17500
F1328       F  0.31503420  0.49289179  0.10656404    -0.20300
C1329       C  0.50895275  0.63232131  0.40570697    -0.21700
C1330       C  0.99796820  0.60280204  0.39873282    -0.09800
C1331       C  0.98713147  0.59682067  0.36891392     0.29100
C1332       C  0.98763682  0.61979744  0.34665915    -0.21700
C1333       C  0.99888311  0.64921734  0.35352218    -0.09800
C1334       C  0.50958300  0.65527908  0.38340784     0.29100
F1335       F  0.52153648  0.68303707  0.39095692    -0.20300
H1336       H  0.51769704  0.63753820  0.42836188     0.17500
H1337       H  0.97892590  0.61455893  0.32399915     0.17500
F1338       F  0.97551632  0.56895714  0.36128056    -0.20300
C1339       C  0.51924796  0.84890037  0.37886453    -0.21700
C1340       C  0.00146857  0.85270539  0.35237721    -0.09800
C1341       C  0.98372914  0.87935829  0.34897340     0.29100
C1342       C  0.98395534  0.90188693  0.37173342    -0.21700
C1343       C  0.00172017  0.89810515  0.39821959    -0.09800
C1344       C  0.51953736  0.87149322  0.40159530     0.29100
F1345       F  0.53793218  0.86780177  0.42634612    -0.20300
H1346       H  0.53330261  0.82863472  0.38170327     0.17500
H1347       H  0.96980834  0.92208999  0.36891740     0.17500
F1348       F  0.96539897  0.88313410  0.32416203    -0.20300
C1349       C  0.99950652  0.84407976  0.11757549    -0.21700
C1350       C  0.99882392  0.85260951  0.14868230    -0.09800
C1351       C  0.49752332  0.88409337  0.15615871     0.29100
C1352       C  0.49746165  0.90619578  0.13305032    -0.21700
C1353       C  0.99856461  0.89767366  0.10194692    -0.09800
C1354       C  0.99931036  0.86617427  0.09446889     0.29100
F1355       F  0.00003099  0.85644276  0.06488773    -0.20300
H1356       H  0.00032875  0.82013572  0.11092563     0.17500
H1357       H  0.49661240  0.93014110  0.13969317     0.17500
F1358       F  0.49630359  0.89380015  0.18573537    -0.20300
C1359       C  0.99784952  0.59393081  0.13341306    -0.21700
C1360       C  0.00063918  0.60207767  0.10236322    -0.09800
C1361       C  0.50357853  0.63340265  0.09487629     0.29100
C1362       C  0.50352964  0.65573325  0.11789069    -0.21700
C1363       C  0.00063125  0.64760602  0.14893261    -0.09800
C1364       C  0.99781786  0.61627060  0.15643851     0.29100
F1365       F  0.99476997  0.60697137  0.18595813    -0.20300
H1366       H  0.99548887  0.57012331  0.14004829     0.17500
H1367       H  0.50587538  0.67953582  0.11123274     0.17500
F1368       F  0.50673445  0.64270987  0.06537069    -0.20300
O1369       O  0.00045241  0.54963635  0.58729048    -0.86900
O1370       O  0.99857021  0.55017820  0.91326296    -0.87100
O1371       O  0.04927776  0.58710905  0.50042079    -0.88800
O1372       O  0.44967414  0.58646924  0.49916266    -0.87500
O1373       O  0.41289993  0.54911480  0.49865339    -0.87100
O1374       O  0.08619794  0.54990138  0.49917140    -0.88500
O1375       O  0.99928290  0.58729096  0.95064668    -0.86900
O1376       O  0.99989688  0.58666110  0.55015303    -0.86500
Zr1377     Zr  0.99960755  0.56167417  0.50015920     2.84300
O1378       O  0.46884332  0.53076023  0.96886679    -1.08500
O1379       O  0.03084364  0.53093167  0.53076214    -1.09200
C1380       C  0.00030524  0.57790835  0.57841371     1.06200
C1381       C  0.99867253  0.57843883  0.92237304     1.06100
C1382       C  0.07745014  0.57818794  0.49970679     1.09100
C1383       C  0.42155750  0.57743635  0.49853191     1.06900
H1384       H  0.04330377  0.54399375  0.95570775     0.32500
O1385       O  0.03069462  0.53116531  0.96854953    -1.29500
H1386       H  0.45595923  0.54348409  0.54397044     0.32100
O1387       O  0.46879988  0.53076472  0.53115839    -1.31100
O1388       O  0.00000968  0.94999010  0.91303003    -0.86900
O1389       O  0.99952217  0.95005143  0.58687809    -0.88400
O1390       O  0.08615729  0.49904402  0.94926758    -0.87000
O1391       O  0.41339632  0.49910490  0.94960780    -0.87000
O1392       O  0.41347540  0.49861509  0.54980351    -0.86700
O1393       O  0.08702778  0.50105512  0.54872942    -0.86600
O1394       O  0.05013582  0.91313181  0.49998476    -0.86900
O1395       O  0.45083692  0.91240906  0.50024087    -0.86400
O1396       O  0.08702768  0.95037003  0.49878396    -0.87500
O1397       O  0.41366555  0.94944875  0.49984796    -0.86600
O1398       O  0.04922629  0.49902584  0.91211469    -0.87000
O1399       O  0.05043568  0.50098215  0.58626023    -0.86700
O1400       O  0.45058543  0.49892653  0.58683610    -0.86400
O1401       O  0.45035924  0.49930045  0.91249313    -0.86800
O1402       O  0.00227655  0.91281315  0.95020557    -0.87100
O1403       O  0.99942025  0.91286909  0.54969927    -0.88400
Zr1404     Zr  0.99980361  0.49994338  0.93790272     2.83100
Zr1405     Zr  0.00026078  0.49988990  0.56170295     2.83500
Zr1406     Zr  0.06137647  0.50002029  0.49935091     2.84100
Zr1407     Zr  0.43839127  0.49948867  0.49980342     2.83400
Zr1408     Zr  0.00032968  0.93806723  0.49995954     2.84200
O1409       O  0.46933302  0.96882869  0.53086851    -1.09000
O1410       O  0.03081081  0.96884680  0.96847182    -1.08500
C1411       C  0.00147145  0.92184787  0.92206604     1.06200
C1412       C  0.99916956  0.92174341  0.57796931     1.08800
C1413       C  0.07739902  0.49870644  0.92099071     1.06300
C1414       C  0.42221782  0.49907927  0.92129942     1.06700
C1415       C  0.42240428  0.49850506  0.57807123     1.06300
C1416       C  0.07853153  0.50133262  0.57705846     1.05800
C1417       C  0.07824824  0.92206119  0.49924987     1.06300
C1418       C  0.42264202  0.92120127  0.50019711     1.05800
H1419       H  0.04422763  0.95616710  0.54368975     0.32400
O1420       O  0.03135997  0.96885585  0.53094356    -1.30100
H1421       H  0.45664545  0.95545851  0.95589163     0.32500
O1422       O  0.46925897  0.96843628  0.96865285    -1.31500
O1423       O  0.00067515  0.70013038  0.66406767    -0.86900
O1424       O  0.00023289  0.70136136  0.83835366    -0.87100
O1425       O  0.04957537  0.66330993  0.75078286    -0.88800
O1426       O  0.44972626  0.66393030  0.75247790    -0.87500
O1427       O  0.41288497  0.70126837  0.75201732    -0.87100
O1428       O  0.08653146  0.70044418  0.75107955    -0.88500
O1429       O  0.99895302  0.66397412  0.80126605    -0.86900
O1430       O  0.99990240  0.66326827  0.70140979    -0.86500
Zr1431     Zr  0.99973757  0.68866867  0.75114764     2.84300
O1432       O  0.46899728  0.71998625  0.78179606    -1.08500
O1433       O  0.03076847  0.71911272  0.71995902    -1.09200
C1434       C  0.00037971  0.67189925  0.67311067     1.06200
C1435       C  0.99953790  0.67307071  0.82950329     1.06100
C1436       C  0.07777675  0.67219588  0.75084514     1.09100
C1437       C  0.42157756  0.67289553  0.75283302     1.06900
H1438       H  0.04356145  0.70655256  0.79503287     0.32500
O1439       O  0.03086713  0.71930769  0.78219233    -1.29500
H1440       H  0.45627874  0.70662848  0.70693473     0.32100
O1441       O  0.46912870  0.71942564  0.71963663    -1.31100
O1442       O  0.00165424  0.80064403  0.83778526    -0.86900
O1443       O  0.99982939  0.80038958  0.66409718    -0.88400
O1444       O  0.08648548  0.75118327  0.80070607    -0.87000
O1445       O  0.41324094  0.75095147  0.79986455    -0.87000
O1446       O  0.41363673  0.75127297  0.70058991    -0.86700
O1447       O  0.08714454  0.74958739  0.70130270    -0.86600
O1448       O  0.05091655  0.83675684  0.75186059    -0.86900
O1449       O  0.45162771  0.83828735  0.75088184    -0.86400
O1450       O  0.08741216  0.79915177  0.75184126    -0.87500
O1451       O  0.41447595  0.80132935  0.75034433    -0.86600
O1452       O  0.04955004  0.75126749  0.83783482    -0.87000
O1453       O  0.05038049  0.74946956  0.66394959    -0.86700
O1454       O  0.45054868  0.75095429  0.66340636    -0.86400
O1455       O  0.44994133  0.75053421  0.83727950    -0.86800
O1456       O  0.00081144  0.83772427  0.80048032    -0.87100
O1457       O  0.00007546  0.83761588  0.70126466    -0.88400
Zr1458     Zr  0.99999853  0.75083102  0.81265310     2.83100
Zr1459     Zr  0.00033284  0.75029849  0.68886875     2.83500
Zr1460     Zr  0.06148850  0.75008240  0.75093091     2.84100
Zr1461     Zr  0.43870195  0.75097338  0.75046120     2.83400
Zr1462     Zr  0.00077562  0.81231945  0.75082925     2.84200
O1463       O  0.46970280  0.78171757  0.71963963    -1.09000
O1464       O  0.03126768  0.78151369  0.78201984    -1.08500
C1465       C  0.00138010  0.82878762  0.82865964     1.06200
C1466       C  0.99965454  0.82871166  0.67302010     1.08800
C1467       C  0.07766823  0.75149654  0.82895973     1.06300
C1468       C  0.42182917  0.75055879  0.82815089     1.06700
C1469       C  0.42234681  0.75124181  0.67229631     1.06300
C1470       C  0.07855073  0.74934392  0.67295732     1.05800
C1471       C  0.07898073  0.82748662  0.75216005     1.06300
C1472       C  0.42345971  0.82958203  0.75063607     1.05800
H1473       H  0.04434866  0.79406398  0.70691283     0.32400
O1474       O  0.03146224  0.78137885  0.71961042    -1.30100
H1475       H  0.45667763  0.79492136  0.79454821     0.32500
O1476       O  0.46934048  0.78199846  0.78177867    -1.31500
O1477       O  0.33658752  0.99932804  0.69986534    -0.86900
O1478       O  0.16359939  0.00065239  0.69934647    -0.87100
O1479       O  0.24964466  0.94979094  0.66228968    -0.88800
O1480       O  0.24964445  0.54929976  0.66277841    -0.87500
O1481       O  0.24889293  0.58664656  0.69983418    -0.87100
O1482       O  0.25261359  0.91255227  0.69936201    -0.88500
O1483       O  0.20055384  0.00081899  0.66222356    -0.86900
O1484       O  0.29965798  0.99852443  0.66269045    -0.86500
Zr1485     Zr  0.25004823  0.99963679  0.68778734     2.84300
O1486       O  0.21907975  0.53078316  0.71847097    -1.08500
O1487       O  0.28123953  0.96895060  0.71849482    -1.09200
C1488       C  0.32779089  0.99855276  0.67156333     1.06200
C1489       C  0.17239711  0.00119550  0.67110708     1.06100
C1490       C  0.25137627  0.92161022  0.67121625     1.09100
C1491       C  0.24906119  0.57759018  0.67155847     1.06900
H1492       H  0.20642347  0.95545007  0.70524564     0.32500
O1493       O  0.21910890  0.96828378  0.71808881    -1.29500
H1494       H  0.29350393  0.54407447  0.70599349     0.32100
O1495       O  0.28073863  0.53121762  0.71865935    -1.31100
O1496       O  0.16275877  0.99888125  0.79841830    -0.86900
O1497       O  0.33644914  0.99993543  0.79959355    -0.88400
O1498       O  0.20106833  0.91225332  0.74977761    -0.87000
O1499       O  0.19976036  0.58692929  0.74963439    -0.87000
O1500       O  0.29903708  0.58721785  0.75182911    -0.86700
O1501       O  0.30036792  0.91334976  0.74992782    -0.86600
O1502       O  0.24803053  0.94968577  0.83624120    -0.86900
O1503       O  0.25030955  0.54919226  0.83724790    -0.86400
O1504       O  0.24906625  0.91257623  0.79893609    -0.87500
O1505       O  0.24803209  0.58656813  0.80022397    -0.86600
O1506       O  0.16417401  0.94951354  0.75018277    -0.87000
O1507       O  0.33704626  0.95077150  0.74978875    -0.86700
O1508       O  0.33640545  0.55041083  0.75190845    -0.86400
O1509       O  0.16316680  0.54943010  0.74926460    -0.86800
O1510       O  0.19938488  0.99889941  0.83589663    -0.87100
O1511       O  0.29931637  0.99926788  0.83654530    -0.88400
Zr1512     Zr  0.18855490  0.99960677  0.74914218     2.83100
Zr1513     Zr  0.31142869  0.00032209  0.74978666     2.83500
Zr1514     Zr  0.25044688  0.93789964  0.74921542     2.84100
Zr1515     Zr  0.24946958  0.56176930  0.74992101     2.83400
Zr1516     Zr  0.24956033  0.99961182  0.81137405     2.84200
O1517       O  0.28037430  0.53100614  0.78090419    -1.09000
O1518       O  0.21923780  0.96862599  0.78003828    -1.08500
C1519       C  0.17127245  0.99865438  0.82673938     1.06200
C1520       C  0.32752139  0.99947856  0.82781969     1.08800
C1521       C  0.17294215  0.92122864  0.75047320     1.06300
C1522       C  0.17167353  0.57781297  0.74949502     1.06700
C1523       C  0.32729337  0.57865394  0.75247004     1.06300
C1524       C  0.32843577  0.92242668  0.75002043     1.05800
C1525       C  0.24803056  0.92142954  0.82722623     1.06300
C1526       C  0.24908766  0.57740937  0.82837685     1.05800
H1527       H  0.29360886  0.95602923  0.79347392     0.32400
O1528       O  0.28094109  0.96882556  0.78063744    -1.30100
H1529       H  0.20567290  0.54335428  0.79351084     0.32500
O1530       O  0.21861370  0.53073757  0.78071247    -1.31500
O1531       O  0.19958901  0.66331372  0.99887976    -0.86900
O1532       O  0.20065785  0.83718479  0.99970457    -0.87100
O1533       O  0.16338150  0.74925907  0.54962428    -0.88800
O1534       O  0.16370703  0.75113875  0.94997078    -0.87500
O1535       O  0.20062685  0.75073676  0.91283187    -0.87100
O1536       O  0.20034334  0.74929689  0.58678836    -0.88500
O1537       O  0.16362916  0.80006523  0.99974242    -0.86900
O1538       O  0.16288184  0.70077604  0.99921248    -0.86500
Zr1539     Zr  0.18869911  0.75009439  0.99976645     2.84300
O1540       O  0.21935090  0.78082462  0.96863330    -1.08500
O1541       O  0.21924355  0.71897430  0.53065879    -1.09200
C1542       C  0.17142987  0.67243810  0.99884649     1.06200
C1543       C  0.17252586  0.82834772  0.99981101     1.06100
C1544       C  0.17213504  0.74903034  0.57791812     1.09100
C1545       C  0.17252479  0.75129241  0.92171268     1.06900
H1546       H  0.20648152  0.79384259  0.54379631     0.32500
O1547       O  0.21924897  0.78111804  0.53093150    -1.29500
H1548       H  0.20618714  0.70588695  0.95568822     0.32100
O1549       O  0.21898055  0.71857402  0.96855672    -1.31100
O1550       O  0.29985840  0.83701040  0.99979348    -0.86900
O1551       O  0.29987711  0.66280610  0.99887004    -0.88400
O1552       O  0.25135516  0.79994624  0.58679611    -0.87000
O1553       O  0.24932928  0.79873299  0.91215404    -0.87000
O1554       O  0.24923977  0.69943916  0.91255213    -0.86700
O1555       O  0.24976732  0.69999976  0.58632866    -0.86600
O1556       O  0.33696215  0.75033942  0.54944065    -0.86900
O1557       O  0.33669023  0.74929599  0.95030599    -0.86400
O1558       O  0.30018736  0.74993787  0.58672810    -0.87500
O1559       O  0.29992529  0.74876457  0.91299506    -0.86600
O1560       O  0.24906128  0.83723196  0.54966523    -0.87000
O1561       O  0.24942849  0.66260889  0.54931700    -0.86700
O1562       O  0.25161281  0.66226344  0.94973473    -0.86400
O1563       O  0.24875981  0.83623276  0.94910000    -0.86800
O1564       O  0.33679484  0.79973222  0.99988767    -0.87100
O1565       O  0.33669269  0.70014556  0.99905902    -0.88400
Zr1566     Zr  0.25014342  0.81184894  0.99955430     2.83100
Zr1567     Zr  0.24995056  0.68778536  0.99953380     2.83500
Zr1568     Zr  0.25022362  0.74996377  0.56159059     2.84100
Zr1569     Zr  0.25013496  0.74940937  0.93794472     2.83400
Zr1570     Zr  0.31148707  0.74989669  0.99980082     2.84200
O1571       O  0.28100657  0.71856972  0.96875174    -1.09000
O1572       O  0.28095433  0.78123697  0.53092400    -1.08500
C1573       C  0.32799599  0.82805319  0.99987304     1.06200
C1574       C  0.32801464  0.67183515  0.99875002     1.08800
C1575       C  0.25020202  0.82814989  0.57782262     1.06300
C1576       C  0.24871389  0.82705888  0.92084426     1.06700
C1577       C  0.25053833  0.67124597  0.92155414     1.06300
C1578       C  0.24946611  0.67167460  0.57756745     1.05800
C1579       C  0.32835942  0.75021974  0.57774719     1.06300
C1580       C  0.32803743  0.74896129  0.92204387     1.05800
H1581       H  0.29373305  0.70587217  0.54345710     0.32400
O1582       O  0.28094272  0.71866051  0.53074193    -1.30100
H1583       H  0.29374731  0.79358906  0.95567708     0.32500
O1584       O  0.28103378  0.78087454  0.96852111    -1.31500
C1585       C  0.25032244  0.63266892  0.65550418    -0.21700
C1586       C  0.24879043  0.60149327  0.64733963    -0.09800
C1587       C  0.24725918  0.59368711  0.61595232     0.29100
C1588       C  0.24753250  0.61655326  0.59359146    -0.21700
C1589       C  0.24920277  0.64773608  0.60176512    -0.09800
C1590       C  0.25056290  0.65552681  0.63315180     0.29100
F1591       F  0.25232022  0.68519805  0.64252247    -0.20300
H1592       H  0.25152796  0.63955073  0.67934804     0.17500
H1593       H  0.24635410  0.60967526  0.56974406     0.17500
F1594       F  0.24536491  0.56401036  0.60659884    -0.20300
C1595       C  0.27256216  0.85132431  0.62489529    -0.21700
C1596       C  0.25030436  0.85196686  0.60175749    -0.09800
C1597       C  0.22846269  0.87559237  0.60158865     0.29100
C1598       C  0.22913229  0.89839427  0.62416999    -0.21700
C1599       C  0.25141769  0.89779540  0.64727521    -0.09800
C1600       C  0.27329391  0.87419480  0.64742921     0.29100
F1601       F  0.29593168  0.87389004  0.66869967    -0.20300
H1602       H  0.28973946  0.83342145  0.62511832     0.17500
H1603       H  0.21192204  0.91626619  0.62395831     0.17500
F1604       F  0.20595009  0.87603983  0.58019570    -0.20300
C1605       C  0.25498380  0.86687035  0.84354762    -0.21700
C1606       C  0.24718711  0.89724976  0.85113007    -0.09800
C1607       C  0.23913951  0.90408263  0.88169016     0.29100
C1608       C  0.23963800  0.88117216  0.90403551    -0.21700
C1609       C  0.24791969  0.85089686  0.89656900    -0.09800
C1610       C  0.25540671  0.84394001  0.86586585     0.29100
F1611       F  0.26391828  0.81520117  0.85733412    -0.20300
H1612       H  0.26134462  0.86082635  0.82030708     0.17500
H1613       H  0.23332829  0.88721261  0.92728821     0.17500
F1614       F  0.23041710  0.93278950  0.89010183    -0.20300
C1615       C  0.27153894  0.60076527  0.87536233    -0.21700
C1616       C  0.24908697  0.60116853  0.85240340    -0.09800
C1617       C  0.22701469  0.62457145  0.85242679     0.29100
C1618       C  0.22784266  0.64759532  0.87481954    -0.21700
C1619       C  0.25038861  0.64729257  0.89769400    -0.09800
C1620       C  0.27230392  0.62372149  0.89782571     0.29100
F1621       F  0.29498049  0.62349212  0.91905651    -0.20300
H1622       H  0.28882765  0.58297043  0.87551279     0.17500
H1623       H  0.21052450  0.66535990  0.87469088     0.17500
F1624       F  0.20412424  0.62453868  0.83142495    -0.20300
C1625       C  0.38166802  0.59541836  0.76006399    -0.21700
C1626       C  0.35110222  0.60307354  0.75373062    -0.09800
C1627       C  0.34385458  0.63412856  0.74825036     0.29100
C1628       C  0.36671732  0.65656168  0.74843867    -0.21700
C1629       C  0.39740857  0.64880262  0.75399762    -0.09800
C1630       C  0.40453654  0.61785329  0.76024737     0.29100
F1631       F  0.43357923  0.60905333  0.76665475    -0.20300
H1632       H  0.38804019  0.57189640  0.76484058     0.17500
H1633       H  0.36032467  0.68006928  0.74363511     0.17500
F1634       F  0.31480143  0.64293860  0.74190640    -0.20300
C1635       C  0.36855229  0.84511115  0.75232936    -0.21700
C1636       C  0.39946209  0.85366916  0.75081316    -0.09800
C1637       C  0.40676134  0.88515595  0.74947207     0.29100
C1638       C  0.38360355  0.90720832  0.74933739    -0.21700
C1639       C  0.35266952  0.89858573  0.75054379    -0.09800
C1640       C  0.34543617  0.86712392  0.75226034     0.29100
F1641       F  0.31606880  0.85733469  0.75398253    -0.20300
H1642       H  0.36204466  0.82118105  0.75360562     0.17500
H1643       H  0.39005188  0.93116021  0.74812513     0.17500
F1644       F  0.43617412  0.89487676  0.74803430    -0.20300
C1645       C  0.09386177  0.61700730  0.74971204    -0.21700
C1646       C  0.10195390  0.64820017  0.75062665    -0.09800
C1647       C  0.13325567  0.65594100  0.75122840     0.29100
C1648       C  0.15555320  0.63300891  0.75081875    -0.21700
C1649       C  0.14745629  0.60179653  0.74982325    -0.09800
C1650       C  0.11617253  0.59407443  0.74934891     0.29100
F1651       F  0.10685921  0.56438852  0.74856529    -0.20300
H1652       H  0.07009767  0.61016670  0.74925234     0.17500
H1653       H  0.17931184  0.63987431  0.75132298     0.17500
F1654       F  0.14261325  0.68562619  0.75222312    -0.20300
C1655       C  0.09537687  0.88235227  0.75447181    -0.21700
C1656       C  0.10331933  0.85117522  0.75263853    -0.09800
C1657       C  0.13453803  0.84322603  0.75109117     0.29100
C1658       C  0.15689567  0.86605244  0.75039457    -0.21700
C1659       C  0.14887321  0.89727373  0.75165626    -0.09800
C1660       C  0.11772590  0.90512740  0.75423459     0.29100
F1661       F  0.10857980  0.93478838  0.75674638    -0.20300
H1662       H  0.07169497  0.88931452  0.75616771     0.17500
H1663       H  0.18059845  0.85912633  0.74881363     0.17500
F1664       F  0.14371779  0.81347396  0.75014441    -0.20300
C1665       C  0.40623544  0.74962453  0.61703974    -0.21700
C1666       C  0.39815773  0.75126989  0.64821222    -0.09800
C1667       C  0.36685029  0.75260843  0.65584491     0.29100
C1668       C  0.34454467  0.75216250  0.63290491    -0.21700
C1669       C  0.35260952  0.75046227  0.60174684    -0.09800
C1670       C  0.38391684  0.74917381  0.59408816     0.29100
F1671       F  0.39324212  0.74728197  0.56446366    -0.20300
H1672       H  0.42999203  0.74851546  0.61023846     0.17500
H1673       H  0.32079073  0.75326060  0.63971724     0.17500
F1674       F  0.35749252  0.75445138  0.68545621    -0.20300
C1675       C  0.09461900  0.74591918  0.61779098    -0.21700
C1676       C  0.10274705  0.74897331  0.64885981    -0.09800
C1677       C  0.13401314  0.75173236  0.65627102     0.29100
C1678       C  0.15620203  0.75155739  0.63318324    -0.21700
C1679       C  0.14804723  0.74868595  0.60210451    -0.09800
C1680       C  0.11680092  0.74575881  0.59470988     0.29100
F1681       F  0.10740536  0.74262531  0.56520942    -0.20300
H1682       H  0.07090147  0.74358966  0.61115774     0.17500
H1683       H  0.17992217  0.75391276  0.63979982     0.17500
F1684       F  0.14340808  0.75489740  0.68576694    -0.20300
C1685       C  0.13270000  0.75158687  0.84427431    -0.21700
C1686       C  0.10175554  0.75198792  0.85288559    -0.09800
C1687       C  0.09442789  0.75271841  0.88434926     0.29100
C1688       C  0.11752874  0.75268478  0.90637172    -0.21700
C1689       C  0.14846520  0.75195182  0.89776854    -0.09800
C1690       C  0.15580355  0.75159926  0.86629609     0.29100
F1691       F  0.18523203  0.75111805  0.85652684    -0.20300
H1692       H  0.13922342  0.75113356  0.82033013     0.17500
H1693       H  0.11100557  0.75311969  0.93031545     0.17500
F1694       F  0.06500337  0.75339011  0.89411011    -0.20300
C1695       C  0.40564327  0.75193377  0.88311746    -0.21700
C1696       C  0.39761469  0.75010390  0.85197488    -0.09800
C1697       C  0.36642185  0.74769787  0.84417406     0.29100
C1698       C  0.34412807  0.74723784  0.86703233    -0.21700
C1699       C  0.35218011  0.74910473  0.89817249    -0.09800
C1700       C  0.38336310  0.75143159  0.90596404     0.29100
F1701       F  0.39260348  0.75342197  0.93561249    -0.20300
H1702       H  0.42933069  0.75384671  0.88998905     0.13100
H1703       H  0.32042815  0.74536979  0.86018215     0.17500
F1704       F  0.35719250  0.74558600  0.81452883    -0.20300
C1705       C  0.36865817  0.90469025  0.99181223    -0.21700
C1706       C  0.39859362  0.89719728  0.50034553    -0.09800
C1707       C  0.40511241  0.86667523  0.50869364     0.29100
C1708       C  0.38209084  0.84446473  0.50832956    -0.21700
C1709       C  0.35197939  0.85212133  0.50010409    -0.09800
C1710       C  0.34558458  0.88257496  0.99174015     0.29100
F1711       F  0.31705286  0.89118637  0.98313680    -0.20300
H1712       H  0.36293104  0.92785226  0.98493538     0.17500
H1713       H  0.38784211  0.82124586  0.51498918     0.17500
F1714       F  0.43350089  0.85829400  0.51797425    -0.20300
C1715       C  0.34434743  0.61708627  0.99241802    -0.21700
C1716       C  0.35214390  0.64798161  0.49837354    -0.09800
C1717       C  0.38319839  0.65540339  0.50276109     0.29100
C1718       C  0.40543350  0.63242251  0.50251246    -0.21700
C1719       C  0.39748095  0.60149106  0.49795531    -0.09800
C1720       C  0.36662333  0.59411325  0.99204232     0.29100
F1721       F  0.35777096  0.56491118  0.98579952    -0.20300
H1722       H  0.32087606  0.61067908  0.98791935     0.17500
H1723       H  0.42899417  0.63897779  0.50625817     0.17500
F1724       F  0.39229953  0.68476709  0.50775713    -0.20300
C1725       C  0.13246940  0.90560174  0.50714206    -0.21700
C1726       C  0.10227557  0.89801892  0.49923044    -0.09800
C1727       C  0.09550039  0.86721112  0.99191404     0.29100
C1728       C  0.11835028  0.84485667  0.99227336    -0.21700
C1729       C  0.14848813  0.85253181  0.49990248    -0.09800
C1730       C  0.15533674  0.88322661  0.50754414     0.29100
F1731       F  0.18398671  0.89171287  0.51588359    -0.20300
H1732       H  0.13843177  0.92891089  0.51339176     0.17500
H1733       H  0.11232565  0.82153732  0.98612561     0.17500
F1734       F  0.06685353  0.85866847  0.98368709    -0.20300
C1735       C  0.15516148  0.61736635  0.49931106    -0.21700
C1736       C  0.14708839  0.64857204  0.49866828    -0.09800
C1737       C  0.11580762  0.65633185  0.99892842     0.29100
C1738       C  0.09350105  0.63339948  0.99939300    -0.21700
C1739       C  0.10157604  0.60221215  0.49923454    -0.09800
C1740       C  0.13287176  0.59446465  0.49941894     0.29100
F1741       F  0.14224295  0.56477362  0.49967590    -0.20300
H1742       H  0.17891683  0.61047326  0.49974379     0.17500
H1743       H  0.06973529  0.64025206  0.00009922     0.17500
F1744       F  0.10645169  0.68603428  0.99899874    -0.20300
C1745       C  0.36719046  0.49759320  0.90552715    -0.21700
C1746       C  0.39818313  0.49876512  0.89716187    -0.09800
C1747       C  0.40561602  0.99976287  0.86568542     0.29100
C1748       C  0.38259294  0.99988005  0.84350623    -0.21700
C1749       C  0.35158629  0.49905502  0.85191942    -0.09800
C1750       C  0.34416861  0.49778075  0.88334590     0.29100
F1751       F  0.31469812  0.49683025  0.89291827    -0.20300
H1752       H  0.36056557  0.49664983  0.92942187     0.17500
H1753       H  0.38922778  0.00076828  0.81960831     0.17500
F1754       F  0.43508032  0.00083758  0.85607382    -0.20300
C1755       C  0.15500877  0.49580527  0.88168566    -0.21700
C1756       C  0.14699138  0.49813863  0.85057884    -0.09800
C1757       C  0.11575915  0.00051430  0.84286457     0.29100
C1758       C  0.09343079  0.00045004  0.86577382    -0.21700
C1759       C  0.10149309  0.49810359  0.89691737    -0.09800
C1760       C  0.13271659  0.49578479  0.90457229     0.29100
F1761       F  0.14200328  0.49347875  0.93416390    -0.20300
H1762       H  0.17871937  0.49402113  0.88851121     0.17500
H1763       H  0.06972656  0.00247422  0.85899247     0.17500
F1764       F  0.10655649  0.00316898  0.81326209    -0.20300
C1765       C  0.09509896  0.00703927  0.63172681    -0.21700
C1766       C  0.10284884  0.50197853  0.60084318    -0.09800
C1767       C  0.13389105  0.49765982  0.59324230     0.29100
C1768       C  0.15622767  0.49765457  0.61612047    -0.21700
C1769       C  0.14837749  0.50207112  0.64706992    -0.09800
C1770       C  0.11746358  0.00725839  0.65455594     0.29100
F1771       F  0.10864642  0.01283876  0.68388124    -0.20300
H1772       H  0.07159403  0.01100514  0.63836016     0.17500
H1773       H  0.17976096  0.49384346  0.60949000     0.17500
F1774       F  0.14287223  0.49298137  0.56380905    -0.20300
C1775       C  0.38276776  0.00076728  0.65577779    -0.21700
C1776       C  0.35186627  0.49794822  0.64749821    -0.09800
C1777       C  0.34448622  0.49530734  0.61610850     0.29100
C1778       C  0.36747658  0.49546534  0.59390577    -0.21700
C1779       C  0.39840552  0.49803565  0.60221624    -0.09800
C1780       C  0.40576125  0.00077724  0.63357651     0.29100
F1781       F  0.43513454  0.00379024  0.64305845    -0.20300
H1782       H  0.38932524  0.00321324  0.67959803     0.17500
H1783       H  0.36088743  0.49349469  0.57005073     0.17500
F1784       F  0.31510735  0.49243104  0.60659533    -0.20300
C1785       C  0.51044890  0.63184367  0.90532905    -0.21700
C1786       C  0.99845416  0.60266554  0.89863348    -0.09800
C1787       C  0.98667545  0.59700106  0.86912666     0.29100
C1788       C  0.98712467  0.62000821  0.84690718    -0.21700
C1789       C  0.99927844  0.64911716  0.85351438    -0.09800
C1790       C  0.51105598  0.65481861  0.88304574     0.29100
F1791       F  0.52404324  0.68220700  0.89020460    -0.20300
H1792       H  0.51998115  0.63674824  0.92773214     0.17500
H1793       H  0.97762476  0.61507148  0.82450051     0.17500
F1794       F  0.97413500  0.56945649  0.86182334    -0.20300
C1795       C  0.51951915  0.84897927  0.87876679    -0.21700
C1796       C  0.00153326  0.85268845  0.85241317    -0.09800
C1797       C  0.98363937  0.87924220  0.84908789     0.29100
C1798       C  0.98387788  0.90176288  0.87183749    -0.21700
C1799       C  0.00184402  0.89807353  0.89819442    -0.09800
C1800       C  0.51984736  0.87158182  0.90147109     0.29100
F1801       F  0.53845431  0.86803199  0.92608678    -0.20300
H1802       H  0.53370456  0.82879190  0.88150903     0.17500
H1803       H  0.96960332  0.92188900  0.86911422     0.17500
F1804       F  0.96517632  0.88293165  0.82436028    -0.20300
C1805       C  0.99964226  0.84416028  0.61781480    -0.21700
C1806       C  0.99900658  0.85272257  0.64891175    -0.09800
C1807       C  0.49773595  0.88421873  0.65635528     0.29100
C1808       C  0.49763250  0.90629357  0.63321244    -0.21700
C1809       C  0.99864749  0.89773216  0.60210886    -0.09800
C1810       C  0.99937774  0.86622252  0.59467854     0.29100
F1811       F  0.99998050  0.85644420  0.56511230    -0.20300
H1812       H  0.00044322  0.82020848  0.61119127     0.17500
H1813       H  0.49680415  0.93024754  0.63982647     0.17500
F1814       F  0.49656271  0.89396080  0.68592441    -0.20300
C1815       C  0.99928629  0.59387073  0.63365003    -0.21700
C1816       C  0.00049271  0.60210043  0.60251621    -0.09800
C1817       C  0.50178507  0.63352321  0.59494975     0.29100
C1818       C  0.50175605  0.65584582  0.61796612    -0.21700
C1819       C  0.00048501  0.64763170  0.64909486    -0.09800
C1820       C  0.99926323  0.61620827  0.65667928     0.29100
F1821       F  0.99792087  0.60679988  0.68629260    -0.20300
H1822       H  0.99824689  0.56999009  0.64036404     0.17500
H1823       H  0.50276981  0.67972031  0.61122722     0.17500
F1824       F  0.50318889  0.64296042  0.56534994    -0.20300
O1825       O  0.50047257  0.04963325  0.08714454    -0.86900
O1826       O  0.49830621  0.05027525  0.41339917    -0.87100
O1827       O  0.54930001  0.08704496  0.00032743    -0.88800
O1828       O  0.94964452  0.08633575  0.99894021    -0.87500
O1829       O  0.91285579  0.04898353  0.99846989    -0.87100
O1830       O  0.58624177  0.04986017  0.99901043    -0.88500
O1831       O  0.49893792  0.08737634  0.45078096    -0.86900
O1832       O  0.49996432  0.08666441  0.05000076    -0.86500
Zr1833     Zr  0.49962550  0.06159796  0.00004441     2.84300
O1834       O  0.96876536  0.03083289  0.46900294    -1.08500
O1835       O  0.53085122  0.03086780  0.03066596    -1.09200
C1836       C  0.50039908  0.07790553  0.07826046     1.06200
C1837       C  0.49829629  0.07853814  0.42250098     1.06100
C1838       C  0.57747829  0.07814446  0.99953082     1.09100
C1839       C  0.92152422  0.07730341  0.99830886     1.06900
H1840       H  0.54318512  0.04409850  0.45580375     0.32500
O1841       O  0.53059341  0.03124592  0.46863891    -1.29500
H1842       H  0.95593509  0.04341362  0.04385365     0.32100
O1843       O  0.96879207  0.03070153  0.03104976    -1.31100
O1844       O  0.49995831  0.45006775  0.41309985    -0.86900
O1845       O  0.49955638  0.45001385  0.08678805    -0.88400
O1846       O  0.58604778  0.99930478  0.44930152    -0.87000
O1847       O  0.91323635  0.99932148  0.44977413    -0.87000
O1848       O  0.91340596  0.99835127  0.04962799    -0.86700
O1849       O  0.58705973  0.00097995  0.04868048    -0.86600
O1850       O  0.55022212  0.41307442  0.00010869    -0.86900
O1851       O  0.95095969  0.41231139  0.00012021    -0.86400
O1852       O  0.58712426  0.45029955  0.99893760    -0.87500
O1853       O  0.91378745  0.44935352  0.99979529    -0.86600
O1854       O  0.54911032  0.99927507  0.41215872    -0.87000
O1855       O  0.55045119  0.00092843  0.08621781    -0.86700
O1856       O  0.95052210  0.99866307  0.08665489    -0.86400
O1857       O  0.95019043  0.99954747  0.41265311    -0.86800
O1858       O  0.50219102  0.41288265  0.45026890    -0.87100
O1859       O  0.49944067  0.41284972  0.04959354    -0.88400
Zr1860     Zr  0.49968517  0.00002141  0.43799120     2.83100
Zr1861     Zr  0.50026287  0.99984605  0.06161568     2.83500
Zr1862     Zr  0.56143472  0.99995953  0.99929626     2.84100
Zr1863     Zr  0.93842424  0.99939063  0.99966888     2.83400
Zr1864     Zr  0.50043402  0.43801994  0.99987525     2.84200
O1865       O  0.96942516  0.46877934  0.03075413    -1.09000
O1866       O  0.53070304  0.46892831  0.46856077    -1.08500
C1867       C  0.50141613  0.42191378  0.42212157     1.06200
C1868       C  0.49917599  0.42171167  0.07786123     1.08800
C1869       C  0.57729209  0.99903099  0.42102049     1.06300
C1870       C  0.92204843  0.99935274  0.42146456     1.06700
C1871       C  0.92233579  0.99817987  0.07789675     1.06300
C1872       C  0.57854991  0.00123297  0.07700557     1.05800
C1873       C  0.57833702  0.42199320  0.99944490     1.06300
C1874       C  0.92276411  0.42110684  0.00012518     1.05800
H1875       H  0.54427933  0.45613665  0.04364149     0.32400
O1876       O  0.53142548  0.46881856  0.03087537    -1.30100
H1877       H  0.95656240  0.45557905  0.45599044     0.32500
O1878       O  0.96919074  0.46853600  0.46875805    -1.31500
O1879       O  0.50077297  0.20011715  0.16390336    -0.86900
O1880       O  0.49999089  0.20138786  0.33824007    -0.87100
O1881       O  0.54967928  0.16331913  0.25051356    -0.88800
O1882       O  0.94992982  0.16373060  0.25222620    -0.87500
O1883       O  0.91306641  0.20104660  0.25195630    -0.87100
O1884       O  0.58659719  0.20049041  0.25078632    -0.88500
O1885       O  0.49890058  0.16396294  0.30119801    -0.86900
O1886       O  0.50005430  0.16325275  0.20124972    -0.86500
Zr1887     Zr  0.49983915  0.18861951  0.25102842     2.84300
O1888       O  0.96910268  0.21991107  0.28171374    -1.08500
O1889       O  0.53080639  0.21910930  0.21982474    -1.09200
C1890       C  0.50051860  0.17188768  0.17294754     1.06200
C1891       C  0.49930424  0.17308858  0.32943653     1.06100
C1892       C  0.57786689  0.17223455  0.25051775     1.09100
C1893       C  0.92178089  0.17267579  0.25264316     1.06900
H1894       H  0.54364118  0.20652641  0.29492558     0.32500
O1895       O  0.53094146  0.21928415  0.28209156    -1.29500
H1896       H  0.95634187  0.20653637  0.20685184     0.32100
O1897       O  0.96917526  0.21935215  0.21955172    -1.31100
O1898       O  0.50167895  0.30063690  0.33772687    -0.86900
O1899       O  0.49968808  0.30027288  0.16387151    -0.88400
O1900       O  0.58655870  0.25116994  0.30054744    -0.87000
O1901       O  0.91333122  0.25073689  0.29992318    -0.87000
O1902       O  0.91362066  0.25105679  0.20057822    -0.86700
O1903       O  0.58712734  0.24972046  0.20115560    -0.86600
O1904       O  0.55084028  0.33678741  0.25162138    -0.86900
O1905       O  0.95147658  0.33812884  0.25089864    -0.86400
O1906       O  0.58736012  0.29920104  0.25168402    -0.87500
O1907       O  0.91436141  0.30113061  0.25041450    -0.86600
O1908       O  0.54962977  0.25118631  0.33768180    -0.87000
O1909       O  0.55036712  0.24957034  0.16379690    -0.86700
O1910       O  0.95051291  0.25079954  0.16337389    -0.86400
O1911       O  0.95005846  0.25050484  0.33730985    -0.86800
O1912       O  0.50082777  0.33770828  0.30041682    -0.87100
O1913       O  0.49991144  0.33748092  0.20105814    -0.88400
Zr1914     Zr  0.50005384  0.25082647  0.31254815     2.83100
Zr1915     Zr  0.50032136  0.25025773  0.18875389     2.83500
Zr1916     Zr  0.56149867  0.25010429  0.25079524     2.84100
Zr1917     Zr  0.93872237  0.25083987  0.25043339     2.83400
Zr1918     Zr  0.50071236  0.31230120  0.25071595     2.84200
O1919       O  0.96966273  0.28162816  0.21956686    -1.09000
O1920       O  0.53126999  0.28153014  0.28188561    -1.08500
C1921       C  0.50140181  0.32878729  0.32861060     1.06200
C1922       C  0.49948748  0.32858746  0.17280423     1.08800
C1923       C  0.57774685  0.25143879  0.32880446     1.06300
C1924       C  0.92193608  0.25041719  0.32821462     1.06700
C1925       C  0.92231905  0.25101295  0.17228029     1.06300
C1926       C  0.57853771  0.24948947  0.17280986     1.05800
C1927       C  0.57891085  0.32753084  0.25192841     1.06300
C1928       C  0.92331262  0.32939406  0.25072267     1.05800
H1929       H  0.54427675  0.29407170  0.20678289     0.32400
O1930       O  0.53141509  0.28137310  0.21949207    -1.30100
H1931       H  0.95668284  0.29484048  0.29447676     0.32500
O1932       O  0.96934743  0.28193748  0.28168952    -1.31500
O1933       O  0.83665102  0.49907526  0.19989890    -0.86900
O1934       O  0.66364136  0.50068341  0.19920086    -0.87100
O1935       O  0.74970684  0.44971832  0.16236507    -0.88800
O1936       O  0.74975288  0.04923617  0.16265712    -0.87500
O1937       O  0.74907693  0.08660586  0.19968441    -0.87100
O1938       O  0.75257304  0.41251809  0.19948395    -0.88500
O1939       O  0.70064878  0.50062604  0.16211152    -0.86900
O1940       O  0.79971893  0.49834227  0.16272952    -0.86500
Zr1941     Zr  0.75010018  0.49958412  0.18778526     2.84300
O1942       O  0.71911229  0.03079951  0.21837452    -1.08500
O1943       O  0.78121766  0.46890114  0.21858159    -1.09200
C1944       C  0.82785354  0.49830014  0.17158886     1.06200
C1945       C  0.67248379  0.50109509  0.17096719     1.06100
C1946       C  0.75138757  0.42154684  0.17131819     1.09100
C1947       C  0.74923310  0.07753496  0.17141899     1.06900
H1948       H  0.70643215  0.45545307  0.20526513     0.32500
O1949       O  0.71910422  0.46830122  0.21810683    -1.29500
H1950       H  0.79358700  0.04398879  0.20591142     0.32100
O1951       O  0.78079753  0.03117245  0.21859348    -1.31100
O1952       O  0.66264211  0.49894009  0.29832409    -0.86900
O1953       O  0.83633284  0.50006489  0.29974259    -0.88400
O1954       O  0.70097591  0.41232796  0.24978680    -0.87000
O1955       O  0.69983929  0.08698892  0.24932018    -0.87000
O1956       O  0.79915449  0.08716067  0.25171431    -0.86700
O1957       O  0.80022857  0.41328898  0.25013788    -0.86600
O1958       O  0.74780032  0.44999098  0.33640508    -0.86900
O1959       O  0.75032482  0.04956110  0.33705712    -0.86400
O1960       O  0.74885925  0.41281141  0.29916145    -0.87500
O1961       O  0.74805805  0.08685598  0.29995753    -0.86600
O1962       O  0.66408530  0.44959395  0.25004492    -0.87000
O1963       O  0.83696587  0.45064991  0.24994387    -0.86700
O1964       O  0.83647754  0.05030748  0.25167368    -0.86400
O1965       O  0.66321632  0.04951517  0.24902243    -0.86800
O1966       O  0.69925595  0.49922559  0.33581062    -0.87100
O1967       O  0.79916370  0.49956410  0.33666591    -0.88400
Zr1968     Zr  0.68852263  0.49967709  0.24906477     2.83100
Zr1969     Zr  0.81144241  0.50026533  0.24983775     2.83500
Zr1970     Zr  0.75036516  0.43794979  0.24933770     2.84100
Zr1971     Zr  0.74953276  0.06180888  0.24978188     2.83400
Zr1972     Zr  0.74947005  0.49984267  0.31138046     2.84200
O1973       O  0.78039987  0.03107511  0.28081754    -1.09000
O1974       O  0.71917057  0.46878449  0.28007810    -1.08500
C1975       C  0.67114575  0.49882835  0.32665365     1.06200
C1976       C  0.82737671  0.49974016  0.32796795     1.08800
C1977       C  0.67284894  0.42130543  0.25037016     1.06300
C1978       C  0.67174839  0.07788733  0.24916226     1.06700
C1979       C  0.82740187  0.07855719  0.25227358     1.06300
C1980       C  0.82831188  0.42231521  0.25020458     1.05800
C1981       C  0.74778442  0.42171776  0.32743686     1.06300
C1982       C  0.74912321  0.07776923  0.32813141     1.05800
H1983       H  0.79348287  0.45614573  0.29363073     0.32400
O1984       O  0.78084794  0.46892440  0.28074381    -1.30100
H1985       H  0.70564107  0.04355224  0.29334855     0.32500
O1986       O  0.71857888  0.03088875  0.28059249    -1.31500
O1987       O  0.69950974  0.16339720  0.49900783    -0.86900
O1988       O  0.70052183  0.33725491  0.49989810    -0.87100
O1989       O  0.66348278  0.24919171  0.04959695    -0.88800
O1990       O  0.66367331  0.25112514  0.44992814    -0.87500
O1991       O  0.70064465  0.25083385  0.41283459    -0.87100
O1992       O  0.70042842  0.24946590  0.08677550    -0.88500
O1993       O  0.66349596  0.30013186  0.49977229    -0.86900
O1994       O  0.66276995  0.20083253  0.49932412    -0.86500
Zr1995     Zr  0.68857099  0.25016009  0.49980859     2.84300
O1996       O  0.71924754  0.28096138  0.46875883    -1.08500
O1997       O  0.71931255  0.21896546  0.03067326    -1.09200
C1998       C  0.67134313  0.17250118  0.49900252     1.06200
C1999       C  0.67239291  0.32841414  0.49990788     1.06100
C2000       C  0.67222556  0.24908902  0.07789135     1.09100
C2001       C  0.67252740  0.25129119  0.42167509     1.06900
H2002       H  0.70658918  0.29387259  0.04371467     0.32500
O2003       O  0.71934373  0.28112950  0.03085556    -1.29500
H2004       H  0.70616985  0.20604066  0.45570979     0.32100
O2005       O  0.71894589  0.21872505  0.46859828    -1.31100
O2006       O  0.79970877  0.33711595  0.50007279    -0.86900
O2007       O  0.79984624  0.16294893  0.49888726    -0.88400
O2008       O  0.75154639  0.30006593  0.08665043    -0.87000
O2009       O  0.74922161  0.29907601  0.41241673    -0.87000
O2010       O  0.74925188  0.19975276  0.41252091    -0.86700
O2011       O  0.74975220  0.20006871  0.08633836    -0.86600
O2012       O  0.83703238  0.25021140  0.04938505    -0.86900
O2013       O  0.83672414  0.24944080  0.45048865    -0.86400
O2014       O  0.80025007  0.24989528  0.08666071    -0.87500
O2015       O  0.79998041  0.24900745  0.41315254    -0.86600
O2016       O  0.74921536  0.33732682  0.04949742    -0.87000
O2017       O  0.74936758  0.16266989  0.04933349    -0.86700
O2018       O  0.75154397  0.16248890  0.44962505    -0.86400
O2019       O  0.74853948  0.33652709  0.44940947    -0.86800
O2020       O  0.83665792  0.29985725  0.50007517    -0.87100
O2021       O  0.83664869  0.20029534  0.49919547    -0.88400
Zr2022     Zr  0.75000302  0.31193024  0.49977164     2.83100
Zr2023     Zr  0.74988091  0.18785712  0.49954345     2.83500
Zr2024     Zr  0.75029479  0.25001190  0.06155069     2.84100
Zr2025     Zr  0.75011323  0.24964347  0.43804508     2.83400
Zr2026     Zr  0.81140010  0.25001523  0.49996489     2.84200
O2027       O  0.78093762  0.21874181  0.46884527    -1.09000
O2028       O  0.78103678  0.28123422  0.03084991    -1.08500
C2029       C  0.82785208  0.32817342  0.50009321     1.06200
C2030       C  0.82798404  0.17198337  0.49882201     1.08800
C2031       C  0.75039376  0.32826869  0.07766490     1.06300
C2032       C  0.74852850  0.32739432  0.42113974     1.06700
C2033       C  0.75051751  0.17153856  0.42145581     1.06300
C2034       C  0.74940125  0.17174229  0.07757556     1.05800
C2035       C  0.82842099  0.25011394  0.07768535     1.06300
C2036       C  0.82809829  0.24912484  0.42221108     1.05800
H2037       H  0.79375516  0.20583842  0.04345773     0.32400
O2038       O  0.78097422  0.21862988  0.03073624    -1.30100
H2039       H  0.79367719  0.29380043  0.45589717     0.32500
O2040       O  0.78096514  0.28105390  0.46871122    -1.31500
C2041       C  0.74899465  0.13265085  0.15545574    -0.21700
C2042       C  0.74895648  0.10145086  0.14721473    -0.09800
C2043       C  0.74880358  0.09366057  0.11578931     0.29100
C2044       C  0.74894290  0.11657211  0.09348176    -0.21700
C2045       C  0.74913203  0.14778087  0.10173817    -0.09800
C2046       C  0.74909717  0.15555342  0.13315238     0.29100
F2047       F  0.74924262  0.18525257  0.14260322    -0.20300
H2048       H  0.74904617  0.13952946  0.17933057     0.17500
H2049       H  0.74891028  0.10969928  0.06960379     0.17500
F2050       F  0.74849617  0.06395589  0.10633526    -0.20300
C2051       C  0.77275513  0.35143696  0.12476741    -0.21700
C2052       C  0.75050380  0.35209134  0.10161732    -0.09800
C2053       C  0.72859042  0.37565225  0.10154118     0.29100
C2054       C  0.72917414  0.39836037  0.12422732    -0.21700
C2055       C  0.75144272  0.39773798  0.14735410    -0.09800
C2056       C  0.77340123  0.37421644  0.14740610     0.29100
F2057       F  0.79604470  0.37391467  0.16866949    -0.20300
H2058       H  0.78998357  0.33358379  0.12493181     0.17500
H2059       H  0.71191641  0.41618728  0.12407044     0.17500
F2060       F  0.70607714  0.37611246  0.08015007    -0.20300
C2061       C  0.75500000  0.36724432  0.34388038    -0.21700
C2062       C  0.74691077  0.39756491  0.35137209    -0.09800
C2063       C  0.73857344  0.40435815  0.38186324     0.29100
C2064       C  0.73911186  0.38146629  0.40424807    -0.21700
C2065       C  0.74769627  0.35124952  0.39686650    -0.09800
C2066       C  0.75544293  0.34433772  0.36621894     0.29100
F2067       F  0.76424260  0.31566452  0.35776591    -0.20300
H2068       H  0.76158670  0.36123263  0.32069502     0.17500
H2069       H  0.73258523  0.38746106  0.42745209     0.17500
F2070       F  0.72951249  0.43299666  0.39014810    -0.20300
C2071       C  0.77164519  0.10121600  0.37505335    -0.21700
C2072       C  0.74916591  0.10159335  0.35211876    -0.09800
C2073       C  0.72707697  0.12498814  0.35217719     0.29100
C2074       C  0.72787333  0.14797328  0.37462356    -0.21700
C2075       C  0.75040780  0.14764873  0.39751478    -0.09800
C2076       C  0.77237867  0.12413188  0.39756446     0.29100
F2077       F  0.79506326  0.12390117  0.41878529    -0.20300
H2078       H  0.78896076  0.08344765  0.37517078     0.17500
H2079       H  0.71052982  0.16571366  0.37453205     0.17500
F2080       F  0.70418393  0.12496959  0.33117807    -0.20300
C2081       C  0.88186989  0.09516454  0.25945108    -0.21700
C2082       C  0.85125501  0.10292638  0.25348727    -0.09800
C2083       C  0.84400412  0.13403571  0.24834052     0.29100
C2084       C  0.86689993  0.15642411  0.24850198    -0.21700
C2085       C  0.89762452  0.14857618  0.25373261    -0.09800
C2086       C  0.90477282  0.11755886  0.25962054     0.29100
F2087       F  0.93386112  0.10864779  0.26566018    -0.20300
H2088       H  0.88825564  0.07159136  0.26395268     0.17500
H2089       H  0.86049097  0.17998279  0.24397570     0.17500
F2090       F  0.81490201  0.14296270  0.24240182    -0.20300
C2091       C  0.86834880  0.34489841  0.25155423    -0.21700
C2092       C  0.89929119  0.35347080  0.25097472    -0.09800
C2093       C  0.90661400  0.38498112  0.25060692     0.29100
C2094       C  0.88347033  0.40704655  0.25046656    -0.21700
C2095       C  0.85251373  0.39842710  0.25072497    -0.09800
C2096       C  0.84523784  0.36693020  0.25148108     0.29100
F2097       F  0.81583286  0.35712193  0.25216451    -0.20300
H2098       H  0.86181178  0.32094498  0.25203512     0.17500
H2099       H  0.88995661  0.43101674  0.25004101     0.17500
F2100       F  0.93605095  0.39472656  0.25020354    -0.20300
C2101       C  0.59396519  0.11708038  0.24875462    -0.21700
C2102       C  0.60204835  0.14825631  0.25019839    -0.09800
C2103       C  0.63333690  0.15599214  0.25126193     0.29100
C2104       C  0.65563698  0.13306626  0.25083593    -0.21700
C2105       C  0.64754616  0.10187089  0.24938032    -0.09800
C2106       C  0.61627439  0.09415460  0.24838538     0.29100
F2107       F  0.60697140  0.06448155  0.24707955    -0.20300
H2108       H  0.57020956  0.11024708  0.24789205     0.17500
H2109       H  0.67938802  0.13991807  0.25174692     0.17500
F2110       F  0.64267370  0.18566157  0.25279963    -0.20300
C2111       C  0.59531069  0.38238296  0.25453241    -0.21700
C2112       C  0.60324193  0.35122571  0.25234183    -0.09800
C2113       C  0.63444470  0.34329764  0.25040836     0.29100
C2114       C  0.65679359  0.36613403  0.24975954    -0.21700
C2115       C  0.64878277  0.39734042  0.25144494    -0.09800
C2116       C  0.61765687  0.40516427  0.25433704     0.29100
F2117       F  0.60853815  0.43479754  0.25724574    -0.20300
H2118       H  0.57164342  0.38931958  0.25651751     0.17500
H2119       H  0.68048101  0.35922843  0.24788137     0.17500
F2120       F  0.64361514  0.31355768  0.24902801    -0.20300
C2121       C  0.90626636  0.25048893  0.11700065    -0.21700
C2122       C  0.89813874  0.25096713  0.14819733    -0.09800
C2123       C  0.86680926  0.25112259  0.15583733     0.29100
C2124       C  0.84453427  0.25075485  0.13287447    -0.21700
C2125       C  0.85265079  0.25027741  0.10169124    -0.09800
C2126       C  0.88397890  0.25010117  0.09402580     0.29100
F2127       F  0.89336326  0.24947011  0.06436938    -0.20300
H2128       H  0.93004393  0.25032473  0.11018988     0.17500
H2129       H  0.82075980  0.25090182  0.13969637     0.17500
F2130       F  0.85739457  0.25165128  0.18547859    -0.20300
C2131       C  0.59470573  0.24553480  0.11770267    -0.21700
C2132       C  0.60275275  0.24915129  0.14873260    -0.09800
C2133       C  0.63397062  0.25243173  0.15614195     0.29100
C2134       C  0.65619272  0.25222103  0.13308851    -0.21700
C2135       C  0.64811875  0.24877405  0.10204985    -0.09800
C2136       C  0.61692641  0.24530419  0.09465681     0.29100
F2137       F  0.60763423  0.24150699  0.06519860    -0.20300
H2138       H  0.57103093  0.24276282  0.11108405     0.17500
H2139       H  0.67987023  0.25500597  0.13969385     0.17500
F2140       F  0.64327995  0.25615759  0.18560077    -0.20300
C2141       C  0.63277391  0.25104270  0.34417064    -0.21700
C2142       C  0.60182791  0.25189849  0.35274280    -0.09800
C2143       C  0.59448177  0.25306201  0.38419130     0.29100
C2144       C  0.61755901  0.25300910  0.40624140    -0.21700
C2145       C  0.64849602  0.25186317  0.39768586    -0.09800
C2146       C  0.65585774  0.25105698  0.36622127     0.29100
F2147       F  0.68528777  0.25011848  0.35648907    -0.20300
H2148       H  0.63930982  0.25022630  0.32023820     0.17500
H2149       H  0.61101728  0.25380852  0.43017152     0.17500
F2150       F  0.56505846  0.25424419  0.39391043    -0.20300
C2151       C  0.90576109  0.25179595  0.38323198    -0.21700
C2152       C  0.89773092  0.24993860  0.35208389    -0.09800
C2153       C  0.86653300  0.24750123  0.34431524     0.29100
C2154       C  0.84423231  0.24718248  0.36718487    -0.21700
C2155       C  0.85227272  0.24914527  0.39832683    -0.09800
C2156       C  0.88347437  0.25136303  0.40609811     0.29100
F2157       F  0.89272725  0.25328802  0.43574666    -0.20300
H2158       H  0.92945529  0.25366876  0.39009154     0.13100
H2159       H  0.82053058  0.24532331  0.36034091     0.17500
F2160       F  0.85730556  0.24520584  0.31468350    -0.20300
C2161       C  0.86841485  0.40492195  0.49244795    -0.21700
C2162       C  0.89870495  0.39711576  0.00030577    -0.09800
C2163       C  0.90516538  0.36664402  0.00887015     0.29100
C2164       C  0.88214014  0.34443268  0.00848718    -0.21700
C2165       C  0.85207642  0.35205209  0.00005222    -0.09800
C2166       C  0.84533166  0.38281662  0.49244130     0.29100
F2167       F  0.81666387  0.39157698  0.48446785    -0.20300
H2168       H  0.86256380  0.42819267  0.48605856     0.17500
H2169       H  0.88784323  0.32124792  0.01530406     0.17500
F2170       F  0.93349147  0.35832738  0.01839591    -0.20300
C2171       C  0.84421925  0.11712224  0.49329219    -0.21700
C2172       C  0.85212224  0.14785220  0.99826965    -0.09800
C2173       C  0.88306313  0.15514939  0.00355001     0.29100
C2174       C  0.90530101  0.13217098  0.00324387    -0.21700
C2175       C  0.89746033  0.10136774  0.99772412    -0.09800
C2176       C  0.86647232  0.09413384  0.49298966     0.29100
F2177       F  0.85746272  0.06480772  0.48763258    -0.20300
H2178       H  0.82066692  0.11061809  0.48940836     0.17500
H2179       H  0.92876483  0.13860703  0.00773954     0.17500
F2180       F  0.89202169  0.18437312  0.00954009    -0.20300
C2181       C  0.63254466  0.40551199  0.00742384    -0.21700
C2182       C  0.60234679  0.39793526  0.99951923    -0.09800
C2183       C  0.59543867  0.36732336  0.49167600     0.29100
C2184       C  0.61827089  0.34495541  0.49211198    -0.21700
C2185       C  0.64856179  0.35245569  0.00009101    -0.09800
C2186       C  0.65541175  0.38313429  0.00779024     0.29100
F2187       F  0.68406400  0.39159839  0.01614393    -0.20300
H2188       H  0.63851223  0.42881929  0.01367559     0.17500
H2189       H  0.61227643  0.32165896  0.48584734     0.17500
F2190       F  0.56684842  0.35884200  0.48319954    -0.20300
C2191       C  0.65515625  0.11736748  0.99762735    -0.21700
C2192       C  0.64709001  0.14857477  0.99841820    -0.09800
C2193       C  0.61575136  0.15634550  0.49751993     0.29100
C2194       C  0.59343085  0.13342635  0.49802440    -0.21700
C2195       C  0.60158903  0.10219247  0.99894389    -0.09800
C2196       C  0.63286736  0.09446278  0.99769096     0.29100
F2197       F  0.64222073  0.06478932  0.99640287    -0.20300
H2198       H  0.67890604  0.11047563  0.99691782     0.17500
H2199       H  0.56966129  0.14026026  0.49728312     0.17500
F2200       F  0.60642626  0.18600001  0.49574400    -0.20300
C2201       C  0.86699022  0.99925386  0.40569534    -0.21700
C2202       C  0.89800661  0.99914149  0.39732704    -0.09800
C2203       C  0.90545621  0.49911973  0.36586957     0.29100
C2204       C  0.88243836  0.49923601  0.34368519    -0.21700
C2205       C  0.85144070  0.99945197  0.35204127    -0.09800
C2206       C  0.84398516  0.99947912  0.38349241     0.29100
F2207       F  0.81450039  0.99992129  0.39306577    -0.20300
H2208       H  0.86033786  0.99933817  0.42960388     0.17500
H2209       H  0.88909158  0.49928199  0.31977392     0.17500
F2210       F  0.93493464  0.49914162  0.35623916    -0.20300
C2211       C  0.65497727  0.99823186  0.38171557    -0.21700
C2212       C  0.64688589  0.99844121  0.35053369    -0.09800
C2213       C  0.61557194  0.49811613  0.34277459     0.29100
C2214       C  0.59326455  0.49816498  0.36571799    -0.21700
C2215       C  0.60140196  0.99854040  0.39693212    -0.09800
C2216       C  0.63270429  0.99831080  0.40462255     0.29100
F2217       F  0.64210224  0.99830790  0.43427370    -0.20300
H2218       H  0.67873845  0.99813848  0.38859419     0.17500
H2219       H  0.56948916  0.49805582  0.35888696     0.17500
F2220       F  0.60625404  0.49793717  0.31308340    -0.20300
C2221       C  0.59544955  0.50854207  0.13136885    -0.21700
C2222       C  0.60288309  0.00180691  0.10075617    -0.09800
C2223       C  0.63364482  0.99553373  0.09337541     0.29100
C2224       C  0.65602171  0.99558277  0.11622291    -0.21700
C2225       C  0.64846642  0.00195187  0.14690821    -0.09800
C2226       C  0.61785377  0.50877588  0.15416877     0.29100
F2227       F  0.60939684  0.51609972  0.18322118    -0.20300
H2228       H  0.57215098  0.51387606  0.13778564     0.17500
H2229       H  0.67931863  0.99020693  0.10982541     0.17500
F2230       F  0.64224199  0.98875588  0.06422800    -0.20300
C2231       C  0.88288279  0.49939213  0.15576916    -0.21700
C2232       C  0.85187308  0.99755856  0.14744197    -0.09800
C2233       C  0.84445257  0.99476781  0.11606850     0.29100
C2234       C  0.86741157  0.99490844  0.09381834    -0.21700
C2235       C  0.89834905  0.99759513  0.10207004    -0.09800
C2236       C  0.90585496  0.49934992  0.13353511     0.29100
F2237       F  0.93530527  0.50124618  0.14305903    -0.20300
H2238       H  0.88952375  0.50103091  0.17963264     0.17500
H2239       H  0.86079556  0.99285501  0.06997732     0.17500
F2240       F  0.81506252  0.99177348  0.10662182    -0.20300
C2241       C  0.00898012  0.13227886  0.40569536    -0.21700
C2242       C  0.49793125  0.10277881  0.39874130    -0.09800
C2243       C  0.48703407  0.09681111  0.36894211     0.29100
C2244       C  0.48754299  0.11978463  0.34668322    -0.21700
C2245       C  0.49885503  0.14918390  0.35352601    -0.09800
C2246       C  0.00961779  0.15523059  0.38339216     0.29100
F2247       F  0.02164849  0.18296253  0.39091191    -0.20300
H2248       H  0.01777693  0.13747933  0.42833361     0.17500
H2249       H  0.47878471  0.11456199  0.32403791     0.17500
F2250       F  0.47535757  0.06896581  0.36133544    -0.20300
C2251       C  0.01928696  0.34888102  0.37890455    -0.21700
C2252       C  0.50155028  0.35270945  0.35239298    -0.09800
C2253       C  0.48387132  0.37939919  0.34895494     0.29100
C2254       C  0.48410838  0.40193142  0.37170798    -0.21700
C2255       C  0.50182390  0.39812119  0.39822219    -0.09800
C2256       C  0.01958848  0.37148073  0.40162851     0.29100
F2257       F  0.03794060  0.36776025  0.42640658    -0.20300
H2258       H  0.03329747  0.32858855  0.38177023     0.17500
H2259       H  0.46999968  0.42215785  0.36886645     0.17500
F2260       F  0.46558123  0.38320856  0.32411884    -0.20300
C2261       C  0.49914760  0.34407669  0.11759282    -0.21700
C2262       C  0.49883153  0.35261156  0.14870581    -0.09800
C2263       C  0.99794806  0.38410978  0.15618820     0.29100
C2264       C  0.99788806  0.40621087  0.13307786    -0.21700
C2265       C  0.49859519  0.39767890  0.10196556    -0.09800
C2266       C  0.49896656  0.36617330  0.09448520     0.29100
F2267       F  0.49930697  0.35643621  0.06489885    -0.20300
H2268       H  0.49965263  0.32012546  0.11093747     0.17500
H2269       H  0.99736787  0.43016338  0.13972815     0.17500
F2270       F  0.99716688  0.39383344  0.18577413    -0.20300
C2271       C  0.49767835  0.09396238  0.13339592    -0.21700
C2272       C  0.50069534  0.10208860  0.10236251    -0.09800
C2273       C  0.00389638  0.13339288  0.09489529     0.29100
C2274       C  0.00383846  0.15572863  0.11790893    -0.21700
C2275       C  0.50067698  0.14762298  0.14893117    -0.09800
C2276       C  0.49763834  0.11630517  0.15641994     0.29100
F2277       F  0.49433301  0.10703099  0.18591934    -0.20300
H2278       H  0.49512448  0.07017074  0.14001574     0.17500
H2279       H  0.00638755  0.17951519  0.11126894     0.17500
F2280       F  0.00732908  0.14266903  0.06541090    -0.20300
O2281       O  0.50045649  0.04963815  0.58730106    -0.86900
O2282       O  0.49852018  0.05015798  0.91325701    -0.87100
O2283       O  0.54924742  0.08712104  0.50042323    -0.88800
O2284       O  0.94964239  0.08645620  0.49916751    -0.87500
O2285       O  0.91286285  0.04910560  0.49861829    -0.87100
O2286       O  0.58617372  0.04991815  0.49918626    -0.88500
O2287       O  0.49925283  0.08727098  0.95064241    -0.86900
O2288       O  0.49991090  0.08666456  0.55016470    -0.86500
Zr2289     Zr  0.49958340  0.06166958  0.50017119     2.84300
O2290       O  0.96882028  0.03075301  0.96886276    -1.08500
O2291       O  0.53082418  0.03092899  0.53076994    -1.09200
C2292       C  0.50033120  0.07791180  0.57842572     1.06200
C2293       C  0.49862964  0.07841676  0.92236995     1.06100
C2294       C  0.57742172  0.07820442  0.49971861     1.09100
C2295       C  0.92152507  0.07742684  0.49850646     1.06900
H2296       H  0.54327557  0.04399312  0.95571025     0.32500
O2297       O  0.53066754  0.03116104  0.96854973    -1.29500
H2298       H  0.95592743  0.04347909  0.54397966     0.32100
O2299       O  0.96876862  0.03076036  0.53116724    -1.31100
O2300       O  0.50005848  0.45000381  0.91303598    -0.86900
O2301       O  0.49955189  0.45005963  0.58688866    -0.88400
O2302       O  0.58613751  0.99906544  0.94926025    -0.87000
O2303       O  0.91337934  0.99908740  0.94959452    -0.87000
O2304       O  0.91343651  0.99858414  0.54979053    -0.86700
O2305       O  0.58700778  0.00104062  0.54874529    -0.86600
O2306       O  0.55012697  0.41312760  0.50005167    -0.86900
O2307       O  0.95084244  0.41242118  0.50019876    -0.86400
O2308       O  0.58702544  0.45035808  0.49880954    -0.87500
O2309       O  0.91367570  0.44946159  0.49984594    -0.86600
O2310       O  0.54920538  0.99904827  0.91210679    -0.87000
O2311       O  0.55041432  0.00097334  0.58627714    -0.86700
O2312       O  0.95055240  0.99891023  0.58682035    -0.86400
O2313       O  0.95034517  0.99930151  0.91248411    -0.86800
O2314       O  0.50234930  0.41282697  0.95021003    -0.87100
O2315       O  0.49940540  0.41287675  0.54971148    -0.88400
Zr2316     Zr  0.49978236  0.99993065  0.93790001     2.83100
Zr2317     Zr  0.50024048  0.99988780  0.56170755     2.83500
Zr2318     Zr  0.56136639  0.00002418  0.49935910     2.84100
Zr2319     Zr  0.93836739  0.99948104  0.49980000     2.83400
Zr2320     Zr  0.50033581  0.43807284  0.49996479     2.84200
O2321       O  0.96934143  0.46883085  0.53087711    -1.09000
O2322       O  0.53082634  0.46885067  0.96847648    -1.08500
C2323       C  0.50154373  0.42186308  0.92207091     1.06200
C2324       C  0.49917727  0.42175077  0.57798284     1.08800
C2325       C  0.57737868  0.99873356  0.92098263     1.06300
C2326       C  0.92220384  0.99907321  0.92128753     1.06700
C2327       C  0.92237065  0.99847941  0.57805604     1.06300
C2328       C  0.57851076  0.00131769  0.57707452     1.05800
C2329       C  0.57823894  0.42205252  0.49931068     1.06300
C2330       C  0.92264788  0.42121177  0.50016776     1.05800
H2331       H  0.54423974  0.45616860  0.54369172     0.32400
O2332       O  0.53137403  0.46885574  0.53094214    -1.30100
H2333       H  0.95666967  0.45547390  0.95589440     0.32500
O2334       O  0.96928220  0.46845027  0.96865826    -1.31500
O2335       O  0.50068977  0.20014626  0.66408278    -0.86900
O2336       O  0.50022260  0.20133235  0.83837546    -0.87100
O2337       O  0.54957136  0.16330640  0.75081937    -0.88800
O2338       O  0.94973591  0.16390635  0.75247583    -0.87500
O2339       O  0.91289027  0.20124028  0.75209647    -0.87100
O2340       O  0.58652326  0.20044530  0.75108196    -0.88500
O2341       O  0.49893267  0.16395047  0.80128007    -0.86900
O2342       O  0.49992364  0.16328246  0.70142320    -0.86500
Zr2343     Zr  0.49973514  0.18866299  0.75117564     2.84300
O2344       O  0.96900555  0.21996440  0.78185876    -1.08500
O2345       O  0.53074843  0.21911829  0.71998079    -1.09200
C2346       C  0.50040945  0.17191443  0.67312377     1.06200
C2347       C  0.49951733  0.17304353  0.82951733     1.06100
C2348       C  0.57777148  0.17219490  0.75087087     1.09100
C2349       C  0.92158653  0.17286775  0.75286010     1.06900
H2350       H  0.54356465  0.20654352  0.79505080     0.32500
O2351       O  0.53086742  0.21930289  0.78221709    -1.29500
H2352       H  0.95626701  0.20661858  0.70699685     0.32100
O2353       O  0.96911387  0.21942311  0.71969404    -1.31100
O2354       O  0.50171914  0.30064635  0.83781184    -0.86900
O2355       O  0.49978658  0.30038492  0.66411795    -0.88400
O2356       O  0.58649693  0.25114460  0.80071483    -0.87000
O2357       O  0.91326897  0.25093672  0.79996537    -0.87000
O2358       O  0.91358777  0.25115941  0.70070177    -0.86700
O2359       O  0.58711732  0.24963298  0.70131757    -0.86600
O2360       O  0.55085853  0.33677436  0.75187109    -0.86900
O2361       O  0.95157004  0.33824790  0.75102431    -0.86400
O2362       O  0.58736539  0.29918024  0.75185825    -0.87500
O2363       O  0.91441780  0.30128870  0.75050126    -0.86600
O2364       O  0.54957121  0.25120977  0.83785318    -0.87000
O2365       O  0.55033953  0.24952355  0.66397746    -0.86700
O2366       O  0.95047578  0.25088456  0.66349455    -0.86400
O2367       O  0.94997701  0.25057526  0.83737042    -0.86800
O2368       O  0.50082455  0.33772036  0.80050198    -0.87100
O2369       O  0.50001185  0.33760488  0.70129072    -0.88400
Zr2370     Zr  0.50001159  0.25081844  0.81269894     2.83100
Zr2371     Zr  0.50029042  0.25030238  0.68890668     2.83500
Zr2372     Zr  0.56147448  0.25008692  0.75095019     2.84100
Zr2373     Zr  0.93869032  0.25095110  0.75054473     2.83400
Zr2374     Zr  0.50073456  0.31230852  0.75086364     2.84200
O2375       O  0.96964734  0.28171150  0.71968479    -1.09000
O2376       O  0.53125212  0.28151017  0.78204476    -1.08500
C2377       C  0.50143085  0.32878939  0.82868093     1.06200
C2378       C  0.49960917  0.32870630  0.67304270     1.08800
C2379       C  0.57768620  0.25143310  0.82897091     1.06300
C2380       C  0.92186216  0.25058742  0.82824996     1.06700
C2381       C  0.92227799  0.25109862  0.67240377     1.06300
C2382       C  0.57851388  0.24940876  0.67297539     1.05800
C2383       C  0.57892534  0.32751387  0.75216795     1.06300
C2384       C  0.92340168  0.32954149  0.75081734     1.05800
H2385       H  0.54430048  0.29407012  0.70694539     0.32400
O2386       O  0.53142332  0.28137763  0.71964482    -1.30100
H2387       H  0.95668535  0.29490124  0.79462040     0.32500
O2388       O  0.96933929  0.28198068  0.78183985    -1.31500
O2389       O  0.83658965  0.49932361  0.69987785    -0.86900
O2390       O  0.66360342  0.50064563  0.69935097    -0.87100
O2391       O  0.74962728  0.44976691  0.66233471    -0.88800
O2392       O  0.74960231  0.04930644  0.66276375    -0.87500
O2393       O  0.74884998  0.08664468  0.69983143    -0.87100
O2394       O  0.75260138  0.41253716  0.69941664    -0.88500
O2395       O  0.70056102  0.50081795  0.66223349    -0.86900
O2396       O  0.79966038  0.49852659  0.66270472    -0.86500
Zr2397     Zr  0.75005322  0.49962877  0.68780619     2.84300
O2398       O  0.71907567  0.03077870  0.71846704    -1.08500
O2399       O  0.78123745  0.46894019  0.71852373    -1.09200
C2400       C  0.82779445  0.49856353  0.67157375     1.06200
C2401       C  0.67240249  0.50118899  0.67111269     1.06100
C2402       C  0.75135597  0.42158836  0.67127043     1.09100
C2403       C  0.74899907  0.07759289  0.67155465     1.06900
H2404       H  0.70642071  0.45545101  0.70526464     0.32500
O2405       O  0.71910648  0.46828453  0.71810756    -1.29500
H2406       H  0.79349779  0.04408166  0.70597438     0.32100
O2407       O  0.78073605  0.03122263  0.71864167    -1.31100
O2408       O  0.66275700  0.49884403  0.79841844    -0.86900
O2409       O  0.83645032  0.49995127  0.79961317    -0.88400
O2410       O  0.70102151  0.41228256  0.74980327    -0.87000
O2411       O  0.69975733  0.08692488  0.74964611    -0.87000
O2412       O  0.79903737  0.08720897  0.75180032    -0.86700
O2413       O  0.80033715  0.41333165  0.75006730    -0.86600
O2414       O  0.74803888  0.44971292  0.83627668    -0.86900
O2415       O  0.75032207  0.04919313  0.83723899    -0.86400
O2416       O  0.74905354  0.41259485  0.79897784    -0.87500
O2417       O  0.74804934  0.08656909  0.80021549    -0.86600
O2418       O  0.66413293  0.44954743  0.75016087    -0.87000
O2419       O  0.83702156  0.45075173  0.74992326    -0.86700
O2420       O  0.83640302  0.05040040  0.75187688    -0.86400
O2421       O  0.66316536  0.04942362  0.74927727    -0.86800
O2422       O  0.69938316  0.49887498  0.83589484    -0.87100
O2423       O  0.79931484  0.49926914  0.83656194    -0.88400
Zr2424     Zr  0.68855307  0.49961511  0.74914761     2.83100
Zr2425     Zr  0.81143174  0.50032246  0.74980663     2.83500
Zr2426     Zr  0.75042673  0.43790234  0.74925181     2.84100
Zr2427     Zr  0.74946743  0.06176439  0.74991423     2.83400
Zr2428     Zr  0.74955617  0.49962264  0.81138454     2.84200
O2429       O  0.78037330  0.03099736  0.78089199    -1.09000
O2430       O  0.71921985  0.46863601  0.78006278    -1.08500
C2431       C  0.67127208  0.49860795  0.82673817     1.06200
C2432       C  0.82752147  0.49948374  0.82783851     1.08800
C2433       C  0.67289372  0.42126199  0.75046466     1.06300
C2434       C  0.67167060  0.07780787  0.74951234     1.06700
C2435       C  0.82729294  0.07864256  0.75243784     1.06300
C2436       C  0.82840568  0.42240765  0.75020246     1.05800
C2437       C  0.74803712  0.42145627  0.82726548     1.06300
C2438       C  0.74910428  0.07741356  0.82836986     1.05800
H2439       H  0.79358848  0.45604869  0.79350153     0.32400
O2440       O  0.78092747  0.46883929  0.78065344    -1.30100
H2441       H  0.70568289  0.04334441  0.79350673     0.32500
O2442       O  0.71862002  0.03072622  0.78070601    -1.31500
O2443       O  0.69955516  0.16334223  0.99889209    -0.86900
O2444       O  0.70063388  0.33720030  0.99979669    -0.87100
O2445       O  0.66334679  0.24929161  0.54963267    -0.88800
O2446       O  0.66370969  0.25113458  0.94997920    -0.87500
O2447       O  0.70063838  0.25075683  0.91284869    -0.87100
O2448       O  0.70029681  0.24932699  0.58680723    -0.88500
O2449       O  0.66360840  0.30007563  0.99980613    -0.86900
O2450       O  0.66284488  0.20080102  0.99924469    -0.86500
Zr2451     Zr  0.68867789  0.25011205  0.99978283     2.84300
O2452       O  0.71932944  0.28086168  0.96865935    -1.08500
O2453       O  0.71921181  0.21896829  0.53067277    -1.09200
C2454       C  0.67139441  0.17246353  0.99887547     1.06200
C2455       C  0.67250446  0.32835706  0.99990788     1.06100
C2456       C  0.67209191  0.24907631  0.57792957     1.09100
C2457       C  0.67253430  0.25128756  0.92172382     1.06900
H2458       H  0.70645077  0.29384089  0.54382767     0.32500
O2459       O  0.71922100  0.28112013  0.53096201    -1.29500
H2460       H  0.70618228  0.20591991  0.95569359     0.32100
O2461       O  0.71897016  0.21860595  0.96856879    -1.31100
O2462       O  0.79982942  0.33704489  0.99986044    -0.86900
O2463       O  0.79985113  0.16282411  0.99888615    -0.88400
O2464       O  0.75132604  0.29992176  0.58685099    -0.87000
O2465       O  0.74936955  0.29878330  0.91219267    -0.87000
O2466       O  0.74927798  0.19949720  0.91254790    -0.86700
O2467       O  0.74969026  0.19998267  0.58633883    -0.86600
O2468       O  0.83689021  0.25033182  0.54954671    -0.86900
O2469       O  0.83670108  0.24935296  0.95039626    -0.86400
O2470       O  0.80010721  0.24987753  0.58682072    -0.87500
O2471       O  0.79994802  0.24882491  0.91307439    -0.86600
O2472       O  0.74903194  0.33722155  0.54973338    -0.87000
O2473       O  0.74939686  0.16259791  0.54931775    -0.86700
O2474       O  0.75160684  0.16230998  0.94972097    -0.86400
O2475       O  0.74875476  0.33627457  0.94914905    -0.86800
O2476       O  0.83676028  0.29976335  0.99997053    -0.87100
O2477       O  0.83666990  0.20016102  0.99909243    -0.88400
Zr2478     Zr  0.75012017  0.31187295  0.99960138     2.83100
Zr2479     Zr  0.74992444  0.18780419  0.99954272     2.83500
Zr2480     Zr  0.75017853  0.24995352  0.56162359     2.84100
Zr2481     Zr  0.75013709  0.24945432  0.93797946     2.83400
Zr2482     Zr  0.81146501  0.24991844  0.99987014     2.84200
O2483       O  0.78099271  0.21860860  0.96879521    -1.09000
O2484       O  0.78091695  0.28124617  0.53098386    -1.08500
C2485       C  0.82796668  0.32808663  0.99994493     1.06200
C2486       C  0.82798986  0.17185004  0.99876876     1.08800
C2487       C  0.75017315  0.32812787  0.57788751     1.06300
C2488       C  0.74874416  0.32710712  0.92089066     1.06700
C2489       C  0.75056171  0.17129856  0.92153956     1.06300
C2490       C  0.74941413  0.17166023  0.57756989     1.05800
C2491       C  0.82828154  0.25018534  0.57785179     1.06300
C2492       C  0.82805732  0.24901972  0.92213209     1.05800
H2493       H  0.79369644  0.20586340  0.54349533     0.32400
O2494       O  0.78091177  0.21865800  0.53078076    -1.30100
H2495       H  0.79374391  0.29362357  0.95574820     0.32500
O2496       O  0.78102469  0.28090438  0.96858210    -1.31500
C2497       C  0.75097201  0.13263462  0.65547709    -0.21700
C2498       C  0.74869822  0.10149820  0.64734607    -0.09800
C2499       C  0.74642655  0.09372478  0.61599766     0.29100
C2500       C  0.74672941  0.11658338  0.59362835    -0.21700
C2501       C  0.74914797  0.14772500  0.60176570    -0.09800
C2502       C  0.75123835  0.15548523  0.63311907     0.29100
F2503       F  0.75380082  0.18511210  0.64244181    -0.20300
H2504       H  0.75278267  0.13948212  0.67929246     0.17500
H2505       H  0.74494803  0.10974001  0.56980863     0.17500
F2506       F  0.74372088  0.06409352  0.60670268    -0.20300
C2507       C  0.77255550  0.35131613  0.62494330    -0.21700
C2508       C  0.75027127  0.35193462  0.60183050    -0.09800
C2509       C  0.72839704  0.37552879  0.60169135     0.29100
C2510       C  0.72906721  0.39833304  0.62426916    -0.21700
C2511       C  0.75138619  0.39776569  0.64734123    -0.09800
C2512       C  0.77328623  0.37418803  0.64747573     0.29100
F2513       F  0.79594530  0.37390995  0.66872395    -0.20300
H2514       H  0.78975406  0.33343395  0.62514560     0.17500
H2515       H  0.71183531  0.41618416  0.62407859     0.17500
F2516       F  0.70585713  0.37594498  0.58032719    -0.20300
C2517       C  0.75525167  0.36695608  0.84363866    -0.21700
C2518       C  0.74722193  0.39728480  0.85117111    -0.09800
C2519       C  0.73897429  0.40408024  0.88168394     0.29100
C2520       C  0.73948307  0.38117622  0.90403769    -0.21700
C2521       C  0.74797594  0.35094793  0.89661933    -0.09800
C2522       C  0.75568897  0.34403374  0.86596391     0.29100
F2523       F  0.76444219  0.31535000  0.85749473    -0.20300
H2524       H  0.76178691  0.36095268  0.82043621     0.17500
H2525       H  0.73300396  0.38717722  0.92725356     0.17500
F2526       F  0.73003023  0.43273782  0.89002984    -0.20300
C2527       C  0.77150345  0.10074169  0.87540828    -0.21700
C2528       C  0.74910494  0.10118414  0.85239634    -0.09800
C2529       C  0.72709436  0.12464789  0.85235836     0.29100
C2530       C  0.72793186  0.14768682  0.87473938    -0.21700
C2531       C  0.75042285  0.14734289  0.89766940    -0.09800
C2532       C  0.77227666  0.12371232  0.89786080     0.29100
F2533       F  0.79490399  0.12343393  0.91914349    -0.20300
H2534       H  0.78874750  0.08290393  0.87560958     0.17500
H2535       H  0.71065655  0.16549278  0.87456110     0.17500
F2536       F  0.70424763  0.12465999  0.83130847    -0.20300
C2537       C  0.88167963  0.09538134  0.75997282    -0.21700
C2538       C  0.85110610  0.10305501  0.75369883    -0.09800
C2539       C  0.84385583  0.13412035  0.74828417     0.29100
C2540       C  0.86672235  0.15654845  0.74848545    -0.21700
C2541       C  0.89741902  0.14877369  0.75399497    -0.09800
C2542       C  0.90455172  0.11781062  0.76016857     0.29100
F2543       F  0.93360193  0.10899102  0.76651410    -0.20300
H2544       H  0.88805590  0.07184920  0.76469430     0.17500
H2545       H  0.86032679  0.18006644  0.74373559     0.17500
F2546       F  0.81479485  0.14294802  0.74200058    -0.20300
C2547       C  0.86852497  0.34511459  0.75317051    -0.21700
C2548       C  0.89941117  0.35363414  0.75107366    -0.09800
C2549       C  0.90670163  0.38509474  0.74922176     0.29100
C2550       C  0.88355251  0.40715487  0.74909268    -0.21700
C2551       C  0.85263560  0.39856650  0.75081953    -0.09800
C2552       C  0.84541624  0.36714003  0.75312211     0.29100
F2553       F  0.81607388  0.35740634  0.75547010    -0.20300
H2554       H  0.86203616  0.32120891  0.75490065     0.17500
H2555       H  0.88998951  0.43108175  0.74743283     0.17500
F2556       F  0.93609424  0.39477476  0.74722096    -0.20300
C2557       C  0.59385955  0.11700907  0.74957939    -0.21700
C2558       C  0.60194889  0.14819803  0.75066728    -0.09800
C2559       C  0.63324756  0.15593330  0.75145730     0.29100
C2560       C  0.65554617  0.13300093  0.75103578    -0.21700
C2561       C  0.64745256  0.10179285  0.74985518    -0.09800
C2562       C  0.61617056  0.09407560  0.74921516     0.29100
F2563       F  0.60685941  0.06439377  0.74825646    -0.20300
H2564       H  0.57009737  0.11017227  0.74897614     0.17500
H2565       H  0.67930266  0.13986186  0.75168772     0.17500
F2566       F  0.64259971  0.18561280  0.75266755    -0.20300
C2567       C  0.59530291  0.38239846  0.75425142    -0.21700
C2568       C  0.60325718  0.35121259  0.75262690    -0.09800
C2569       C  0.63448357  0.34326233  0.75126013     0.29100
C2570       C  0.65684247  0.36608730  0.75055714    -0.21700
C2571       C  0.64881403  0.39731322  0.75162643    -0.09800
C2572       C  0.61765102  0.40517613  0.75399817     0.29100
F2573       F  0.60848539  0.43484945  0.75627816    -0.20300
H2574       H  0.57161194  0.38936690  0.75578633     0.17500
H2575       H  0.68055310  0.35915509  0.74913299     0.17500
F2576       F  0.64367186  0.31350817  0.75051101    -0.20300
C2577       C  0.90615753  0.25146585  0.61713533    -0.21700
C2578       C  0.89807040  0.25104517  0.64833804    -0.09800
C2579       C  0.86675148  0.25030696  0.65600177     0.29100
C2580       C  0.84445132  0.24996974  0.63305306    -0.21700
C2581       C  0.85252940  0.25038422  0.60185928    -0.09800
C2582       C  0.88384757  0.25109805  0.59417652     0.29100
F2583       F  0.89320317  0.25141357  0.56451006    -0.20300
H2584       H  0.92992293  0.25203012  0.61030631     0.17500
H2585       H  0.82068951  0.24938195  0.63989268     0.17500
F2586       F  0.85737388  0.24984282  0.68565426    -0.20300
C2587       C  0.59457150  0.24605078  0.61780055    -0.21700
C2588       C  0.60270503  0.24906920  0.64887155    -0.09800
C2589       C  0.63397379  0.25180904  0.65628081     0.29100
C2590       C  0.65616015  0.25162649  0.63319175    -0.21700
C2591       C  0.64800162  0.24876753  0.60211299    -0.09800
C2592       C  0.61675226  0.24588289  0.59471773     0.29100
F2593       F  0.60735378  0.24277600  0.56521564    -0.20300
H2594       H  0.57085152  0.24374625  0.61116778     0.17500
H2595       H  0.67988259  0.25395788  0.63980874     0.17500
F2596       F  0.64337591  0.25495305  0.68577672    -0.20300
C2597       C  0.63271874  0.25172412  0.84428271    -0.21700
C2598       C  0.60177292  0.25189974  0.85289510    -0.09800
C2599       C  0.59443982  0.25239968  0.88436134     0.29100
C2600       C  0.61753794  0.25239116  0.90638304    -0.21700
C2601       C  0.64847771  0.25190731  0.89777864    -0.09800
C2602       C  0.65582085  0.25175902  0.86630645     0.29100
F2603       F  0.68525271  0.25152311  0.85653976    -0.20300
H2604       H  0.63924406  0.25145014  0.82033685     0.17500
H2605       H  0.61100938  0.25264469  0.93032739     0.17500
F2606       F  0.56501237  0.25281184  0.89412684    -0.20300
C2607       C  0.90569871  0.25151082  0.88323590    -0.21700
C2608       C  0.89764689  0.25015927  0.85207549    -0.09800
C2609       C  0.86642464  0.24823980  0.84425465     0.29100
C2610       C  0.84412989  0.24777867  0.86710843    -0.21700
C2611       C  0.85220461  0.24916204  0.89826597    -0.09800
C2612       C  0.88341464  0.25100285  0.90607914     0.29100
F2613       F  0.89268300  0.25246742  0.93574803    -0.20300
H2614       H  0.92940899  0.25302249  0.89012688     0.13100
H2615       H  0.82040845  0.24630817  0.86023703     0.17500
F2616       F  0.85715891  0.24663824  0.81459027    -0.20300
C2617       C  0.86862237  0.40474912  0.99199203    -0.21700
C2618       C  0.89859729  0.39720358  0.50031323    -0.09800
C2619       C  0.90517015  0.36661908  0.50839641     0.29100
C2620       C  0.88213644  0.34442215  0.50807919    -0.21700
C2621       C  0.85196222  0.35213997  0.50014473    -0.09800
C2622       C  0.84553608  0.38264629  0.99195622     0.29100
F2623       F  0.81696096  0.39131747  0.98356041    -0.20300
H2624       H  0.86286271  0.42794568  0.98525962     0.17500
H2625       H  0.88793887  0.32115798  0.51453473     0.17500
F2626       F  0.93363413  0.35814792  0.51735666    -0.20300
C2627       C  0.84430694  0.11709034  0.99245464    -0.21700
C2628       C  0.85212828  0.14799119  0.49834443    -0.09800
C2629       C  0.88316275  0.15538252  0.50291737     0.29100
C2630       C  0.90539339  0.13239657  0.50266175    -0.21700
C2631       C  0.89745635  0.10148983  0.49791015    -0.09800
C2632       C  0.86657673  0.09410965  0.99207607     0.29100
F2633       F  0.85771001  0.06490542  0.98586420    -0.20300
H2634       H  0.82082968  0.11068514  0.98798469     0.17500
H2635       H  0.92893607  0.13892458  0.50656685     0.17500
F2636       F  0.89224323  0.18471722  0.50811968    -0.20300
C2637       C  0.63243899  0.40558194  0.50727697    -0.21700
C2638       C  0.60225548  0.39800719  0.49932304    -0.09800
C2639       C  0.59551185  0.36723762  0.99193446     0.29100
C2640       C  0.61835356  0.34487946  0.99230228    -0.21700
C2641       C  0.64845781  0.35252108  0.49999760    -0.09800
C2642       C  0.65530251  0.38320562  0.50768043     0.29100
F2643       F  0.68394600  0.39168048  0.51605354    -0.20300
H2644       H  0.63839622  0.42888599  0.51355115     0.17500
H2645       H  0.61234676  0.32158014  0.98606041     0.17500
F2646       F  0.56689254  0.35872929  0.98357830    -0.20300
C2647       C  0.65512889  0.11739622  0.49953833    -0.21700
C2648       C  0.64705806  0.14859490  0.49864850    -0.09800
C2649       C  0.61577000  0.15634692  0.99882897     0.29100
C2650       C  0.59346512  0.13341084  0.99930418    -0.21700
C2651       C  0.60154585  0.10223288  0.49924880    -0.09800
C2652       C  0.63284100  0.09449329  0.49967148     0.29100
F2653       F  0.64221407  0.06480779  0.50021058    -0.20300
H2654       H  0.67888177  0.11050980  0.50016436     0.17500
H2655       H  0.56969505  0.14026073  0.99987477     0.17500
F2656       F  0.60640842  0.18604709  0.99872043    -0.20300
C2657       C  0.86717779  0.99769011  0.90551379    -0.21700
C2658       C  0.89817320  0.99876727  0.89714822    -0.09800
C2659       C  0.90562035  0.49982146  0.86570075     0.29100
C2660       C  0.88259430  0.49994247  0.84352401    -0.21700
C2661       C  0.85158411  0.99905891  0.85190163    -0.09800
C2662       C  0.84415965  0.99788366  0.88333075     0.29100
F2663       F  0.81468615  0.99704437  0.89290486    -0.20300
H2664       H  0.86054757  0.99682285  0.92941014     0.17500
H2665       H  0.88922577  0.50088563  0.81962741     0.17500
F2666       F  0.93508210  0.50095214  0.85608804    -0.20300
C2667       C  0.65497795  0.99556908  0.88166880    -0.21700
C2668       C  0.64698667  0.99820313  0.85057979    -0.09800
C2669       C  0.61574861  0.50015830  0.84285388     0.29100
C2670       C  0.59342698  0.50010447  0.86576778    -0.21700
C2671       C  0.60147410  0.99814583  0.89690862    -0.09800
C2672       C  0.63267739  0.99553019  0.90455029     0.29100
F2673       F  0.64193123  0.99288201  0.93412283    -0.20300
H2674       H  0.67867275  0.99353845  0.88848088     0.17500
H2675       H  0.56970800  0.50190103  0.85897460     0.17500
F2676       F  0.60651973  0.50251407  0.81323359    -0.20300
C2677       C  0.59508774  0.50687818  0.63173865    -0.21700
C2678       C  0.60283158  0.00196219  0.60085532    -0.09800
C2679       C  0.63385209  0.99746444  0.59326838     0.29100
C2680       C  0.65619458  0.99747397  0.61614054    -0.21700
C2681       C  0.64837097  0.00207788  0.64706935    -0.09800
C2682       C  0.61744432  0.50708459  0.65457394     0.29100
F2683       F  0.60858964  0.51247990  0.68392182    -0.20300
H2684       H  0.57156505  0.51070742  0.63838784     0.17500
H2685       H  0.67970870  0.99351682  0.60952564     0.17500
F2686       F  0.64280150  0.99258231  0.56385777    -0.20300
C2687       C  0.88280937  0.50024926  0.65582261    -0.21700
C2688       C  0.85185922  0.99791161  0.64749355    -0.09800
C2689       C  0.84450840  0.99471385  0.61614873     0.29100
C2690       C  0.86749050  0.99488011  0.59393603    -0.21700
C2691       C  0.89838048  0.99800216  0.60220375    -0.09800
C2692       C  0.90581064  0.50025334  0.63362662     0.29100
F2693       F  0.93522185  0.50267027  0.64316016    -0.20300
H2694       H  0.88939566  0.50223602  0.67967614     0.17500
H2695       H  0.86093291  0.99245966  0.57011219     0.17500
F2696       F  0.81517180  0.99124377  0.60670045    -0.20300
C2697       C  0.01053865  0.13177567  0.90529453    -0.21700
C2698       C  0.49841089  0.10264070  0.89863468    -0.09800
C2699       C  0.48651511  0.09701588  0.86916859     0.29100
C2700       C  0.48697101  0.12002296  0.84694838    -0.21700
C2701       C  0.49924734  0.14908790  0.85352080    -0.09800
C2702       C  0.01115368  0.15474832  0.88301139     0.29100
F2703       F  0.02427360  0.18208551  0.89011986    -0.20300
H2704       H  0.02016877  0.13663978  0.92766424     0.17500
H2705       H  0.47738096  0.11512497  0.82457185     0.17500
F2706       F  0.47385338  0.06951456  0.86191254    -0.20300
C2707       C  0.01957468  0.34898343  0.87878602    -0.21700
C2708       C  0.50160688  0.35269992  0.85242455    -0.09800
C2709       C  0.48375366  0.37927930  0.84907592     0.29100
C2710       C  0.48399849  0.40180156  0.87182130    -0.21700
C2711       C  0.50193304  0.39809318  0.89819625    -0.09800
C2712       C  0.01991170  0.37159094  0.90148472     0.29100
F2713       F  0.03850079  0.36802811  0.92611091    -0.20300
H2714       H  0.03373658  0.32878155  0.88154292     0.17500
H2715       H  0.46974801  0.42194264  0.86908168     0.17500
F2716       F  0.46531852  0.38299340  0.82433109    -0.20300
C2717       C  0.49947852  0.34416030  0.61783198    -0.21700
C2718       C  0.49898496  0.35272235  0.64893287    -0.09800
C2719       C  0.99788181  0.38422298  0.65637578     0.29100
C2720       C  0.99778663  0.40629969  0.63323248    -0.21700
C2721       C  0.49865544  0.39773869  0.60212696    -0.09800
C2722       C  0.49923320  0.36622580  0.59469558     0.29100
F2723       F  0.49969645  0.35644704  0.56512687    -0.20300
H2724       H  0.50014763  0.32020544  0.61120498     0.17500
H2725       H  0.99708511  0.43025655  0.63985044     0.17500
F2726       F  0.99687928  0.39397017  0.68594934    -0.20300
C2727       C  0.49916506  0.09388730  0.63365839    -0.21700
C2728       C  0.50055663  0.10210633  0.60252959    -0.09800
C2729       C  0.00207723  0.13351931  0.59497198     0.29100
C2730       C  0.00204294  0.15584627  0.61798718    -0.21700
C2731       C  0.50054481  0.14764500  0.64910686    -0.09800
C2732       C  0.49913810  0.11622817  0.65668604     0.29100
F2733       F  0.49758467  0.10683135  0.68629248    -0.20300
H2734       H  0.49796423  0.07001320  0.64036810     0.17500
H2735       H  0.00323078  0.17971418  0.61125376     0.17500
F2736       F  0.00371812  0.14294209  0.56537987    -0.20300
O2737       O  0.50047522  0.54962474  0.08714827    -0.86900
O2738       O  0.49833517  0.55029094  0.41339115    -0.87100
O2739       O  0.54933138  0.58704152  0.00030039    -0.88800
O2740       O  0.94968437  0.58635174  0.99892820    -0.87500
O2741       O  0.91289582  0.54899874  0.99848171    -0.87100
O2742       O  0.58626850  0.54985253  0.99897709    -0.88500
O2743       O  0.49897309  0.58739093  0.45077243    -0.86900
O2744       O  0.49995575  0.58665255  0.05000297    -0.86500
Zr2745     Zr  0.49965583  0.56160194  0.00004236     2.84300
O2746       O  0.96877798  0.53084484  0.46899594    -1.08500
O2747       O  0.53088163  0.53087540  0.03067215    -1.09200
C2748       C  0.50037885  0.57789514  0.07826267     1.06200
C2749       C  0.49833196  0.57855522  0.42249165     1.06100
C2750       C  0.57750749  0.57813706  0.99948593     1.09100
C2751       C  0.92156483  0.57731805  0.99830755     1.06900
H2752       H  0.54320892  0.54409760  0.45579189     0.32500
O2753       O  0.53061457  0.53124795  0.46862756    -1.29500
H2754       H  0.95596899  0.54341821  0.04385562     0.32100
O2755       O  0.96882595  0.53070617  0.03105171    -1.31100
O2756       O  0.49989522  0.95005637  0.41309576    -0.86900
O2757       O  0.49951665  0.95001020  0.08678045    -0.88400
O2758       O  0.58604780  0.49928755  0.44929120    -0.87000
O2759       O  0.91324921  0.49932883  0.44978686    -0.87000
O2760       O  0.91345794  0.49837695  0.04966014    -0.86700
O2761       O  0.58708861  0.50098448  0.04867539    -0.86600
O2762       O  0.55021311  0.91306704  0.00003850    -0.86900
O2763       O  0.95094266  0.91230548  0.00015647    -0.86400
O2764       O  0.58710835  0.95029794  0.99888415    -0.87500
O2765       O  0.91376492  0.94934422  0.99979654    -0.86600
O2766       O  0.54911148  0.49926484  0.41214758    -0.87000
O2767       O  0.55048131  0.50091538  0.08621241    -0.86700
O2768       O  0.95057064  0.49866160  0.08668864    -0.86400
O2769       O  0.95019433  0.49952583  0.41265628    -0.86800
O2770       O  0.50212257  0.91287043  0.45026429    -0.87100
O2771       O  0.49943431  0.91284767  0.04958304    -0.88400
Zr2772     Zr  0.49969586  0.50003195  0.43798531     2.83100
Zr2773     Zr  0.50029152  0.49984647  0.06161795     2.83500
Zr2774     Zr  0.56145463  0.49995972  0.99929936     2.84100
Zr2775     Zr  0.93845006  0.49940048  0.99967961     2.83400
Zr2776     Zr  0.50041862  0.93801411  0.99986863     2.84200
O2777       O  0.96940694  0.96877670  0.03074380    -1.09000
O2778       O  0.53070087  0.96892523  0.46856335    -1.08500
C2779       C  0.50133484  0.92190081  0.42211697     1.06200
C2780       C  0.49915123  0.92170877  0.07784987     1.08800
C2781       C  0.57729148  0.49901414  0.42101083     1.06300
C2782       C  0.92205402  0.49933924  0.42147552     1.06700
C2783       C  0.92238482  0.49818934  0.07793148     1.06300
C2784       C  0.57857945  0.50122474  0.07700003     1.05800
C2785       C  0.57832812  0.92198802  0.99936426     1.06300
C2786       C  0.92274656  0.92110019  0.00015040     1.05800
H2787       H  0.54426146  0.95613360  0.04363674     0.32400
O2788       O  0.53140543  0.96881644  0.03087368    -1.30100
H2789       H  0.95654486  0.95556969  0.45599303     0.32500
O2790       O  0.96917470  0.96852628  0.46875970    -1.31500
O2791       O  0.50076103  0.70009801  0.16389870    -0.86900
O2792       O  0.50000604  0.70142118  0.33822607    -0.87100
O2793       O  0.54968462  0.66332225  0.25049577    -0.88800
O2794       O  0.94992989  0.66374602  0.25223427    -0.87500
O2795       O  0.91306814  0.70106350  0.25188921    -0.87100
O2796       O  0.58660913  0.70048661  0.25078967    -0.88500
O2797       O  0.49892304  0.66399135  0.30119073    -0.86900
O2798       O  0.50004655  0.66323788  0.20124847    -0.86500
Zr2799     Zr  0.49984466  0.68862743  0.25100918     2.84300
O2800       O  0.96909815  0.71993497  0.28166176    -1.08500
O2801       O  0.53082503  0.71910574  0.21980743    -1.09200
C2802       C  0.50049902  0.67186975  0.17294634     1.06200
C2803       C  0.49932718  0.67312036  0.32942854     1.06100
C2804       C  0.57787423  0.67223223  0.25050559     1.09100
C2805       C  0.92178048  0.67269226  0.25262377     1.06900
H2806       H  0.54364430  0.70654067  0.29491408     0.32500
O2807       O  0.53094628  0.71929281  0.28207233    -1.29500
H2808       H  0.95635745  0.70654021  0.20679950     0.32100
O2809       O  0.96919208  0.71935191  0.21950252    -1.31100
O2810       O  0.50162212  0.80064232  0.33769747    -0.86900
O2811       O  0.49971514  0.80027561  0.16385159    -0.88400
O2812       O  0.58655334  0.75122156  0.30053547    -0.87000
O2813       O  0.91330843  0.75076236  0.29982924    -0.87000
O2814       O  0.91366634  0.75115358  0.20047374    -0.86700
O2815       O  0.58714844  0.74966411  0.20113632    -0.86600
O2816       O  0.55088137  0.83677474  0.25160679    -0.86900
O2817       O  0.95151711  0.83816235  0.25076499    -0.86400
O2818       O  0.58739674  0.79918413  0.25166332    -0.87500
O2819       O  0.91440299  0.80116307  0.25027207    -0.86600
O2820       O  0.54961534  0.75125982  0.33766145    -0.87000
O2821       O  0.55040165  0.74951330  0.16376528    -0.86700
O2822       O  0.95058119  0.75085824  0.16329030    -0.86400
O2823       O  0.95002736  0.75049256  0.33722627    -0.86800
O2824       O  0.50080023  0.83771791  0.30039082    -0.87100
O2825       O  0.49995709  0.83749224  0.20103079    -0.88400
Zr2826     Zr  0.50004466  0.75084349  0.31250652     2.83100
Zr2827     Zr  0.50035955  0.75025270  0.18871935     2.83500
Zr2828     Zr  0.56151428  0.75010223  0.25077581     2.84100
Zr2829     Zr  0.93873259  0.75085750  0.25035650     2.83400
Zr2830     Zr  0.50074223  0.81231158  0.25068037     2.84200
O2831       O  0.96970930  0.78163159  0.21952246    -1.09000
O2832       O  0.53128301  0.78153706  0.28185753    -1.08500
C2833       C  0.50134687  0.82879268  0.32858508     1.06200
C2834       C  0.49951094  0.82859144  0.17278084     1.08800
C2835       C  0.57773509  0.75152043  0.32879003     1.06300
C2836       C  0.92190726  0.75041727  0.32812246     1.06700
C2837       C  0.92238381  0.75113362  0.17217985     1.06300
C2838       C  0.57856855  0.74941340  0.17278731     1.05800
C2839       C  0.57895070  0.82751415  0.25191670     1.06300
C2840       C  0.92335329  0.82942714  0.25055877     1.05800
H2841       H  0.54431768  0.79406679  0.20674971     0.32400
O2842       O  0.53144905  0.78137507  0.21945897    -1.30100
H2843       H  0.95667567  0.79485942  0.29440658     0.32500
O2844       O  0.96934851  0.78195329  0.28163087    -1.31500
O2845       O  0.83663130  0.99909249  0.19985863    -0.86900
O2846       O  0.66362362  0.00070611  0.19920499    -0.87100
O2847       O  0.74970250  0.94974658  0.16231523    -0.88800
O2848       O  0.74983201  0.54923249  0.16267535    -0.87500
O2849       O  0.74915908  0.58660883  0.19969655    -0.87100
O2850       O  0.75256400  0.91254100  0.19942763    -0.88500
O2851       O  0.70062380  0.00062821  0.16210785    -0.86900
O2852       O  0.79969288  0.99834912  0.16269420    -0.86500
Zr2853     Zr  0.75008195  0.99959461  0.18776463     2.84300
O2854       O  0.71911912  0.53079303  0.21838086    -1.08500
O2855       O  0.78121175  0.96891477  0.21854589    -1.09200
C2856       C  0.82782770  0.99830314  0.17155221     1.06200
C2857       C  0.67246109  0.00111024  0.17096896     1.06100
C2858       C  0.75138341  0.92157349  0.17126124     1.09100
C2859       C  0.74934670  0.57753504  0.17143118     1.06900
H2860       H  0.70642037  0.95546142  0.20525025     0.32500
O2861       O  0.71909506  0.96830858  0.21809040    -1.29500
H2862       H  0.79360389  0.54397289  0.20594767     0.32100
O2863       O  0.78080626  0.53115924  0.21862398    -1.31100
O2864       O  0.66265465  0.99897855  0.29832948    -0.86900
O2865       O  0.83635727  0.00006194  0.29969537    -0.88400
O2866       O  0.70100331  0.91231808  0.24975632    -0.87000
O2867       O  0.69983321  0.58696926  0.24930053    -0.87000
O2868       O  0.79915481  0.58715797  0.25176082    -0.86700
O2869       O  0.80024761  0.91330547  0.25001444    -0.86600
O2870       O  0.74784703  0.94999508  0.33636535    -0.86900
O2871       O  0.75028050  0.54954158  0.33707514    -0.86400
O2872       O  0.74884143  0.91281837  0.29912495    -0.87500
O2873       O  0.74802212  0.58683851  0.29997552    -0.86600
O2874       O  0.66411143  0.94958326  0.25006138    -0.87000
O2875       O  0.83698181  0.95066817  0.24979674    -0.86700
O2876       O  0.83648045  0.55030692  0.25172092    -0.86400
O2877       O  0.66320738  0.54949851  0.24901271    -0.86800
O2878       O  0.69927585  0.99925248  0.33580976    -0.87100
O2879       O  0.79919186  0.99960047  0.33662277    -0.88400
Zr2880     Zr  0.68852307  0.99968459  0.24906263     2.83100
Zr2881     Zr  0.81144155  0.00027259  0.24979910     2.83500
Zr2882     Zr  0.75037591  0.93795610  0.24930069     2.84100
Zr2883     Zr  0.74953384  0.56180186  0.24979615     2.83400
Zr2884     Zr  0.74949103  0.99985335  0.31135952     2.84200
O2885       O  0.78038894  0.53106769  0.28084682    -1.09000
O2886       O  0.71919342  0.96879500  0.28005486    -1.08500
C2887       C  0.67116169  0.99887044  0.32665824     1.06200
C2888       C  0.82740349  0.99976345  0.32792250     1.08800
C2889       C  0.67287775  0.92129398  0.25036751     1.06300
C2890       C  0.67174142  0.57786931  0.24914249     1.06700
C2891       C  0.82740345  0.57855747  0.25232173     1.06300
C2892       C  0.82833083  0.92233291  0.25002719     1.05800
C2893       C  0.74779042  0.92172066  0.32740313     1.06300
C2894       C  0.74907588  0.57774729  0.32814820     1.05800
H2895       H  0.79350746  0.95614196  0.29358982     0.32400
O2896       O  0.78086421  0.96892393  0.28071400    -1.30100
H2897       H  0.70562484  0.54354304  0.29335093     0.32500
O2898       O  0.71856980  0.53088138  0.28060042    -1.31500
O2899       O  0.69954013  0.66336893  0.49903583    -0.86900
O2900       O  0.70055215  0.83724928  0.49983100    -0.87100
O2901       O  0.66352514  0.74914256  0.04958900    -0.88800
O2902       O  0.66366689  0.75114399  0.44991936    -0.87500
O2903       O  0.70062961  0.75082406  0.41281734    -0.87100
O2904       O  0.70047776  0.74939945  0.08676119    -0.88500
O2905       O  0.66352085  0.80013203  0.49972669    -0.86900
O2906       O  0.66280409  0.70080727  0.49933317    -0.86500
Zr2907     Zr  0.68858602  0.75014822  0.49979405     2.84300
O2908       O  0.71926488  0.78092661  0.46873315    -1.08500
O2909       O  0.71934581  0.71895732  0.03065886    -1.09200
C2910       C  0.67137524  0.67247458  0.49902712     1.06200
C2911       C  0.67242107  0.82841463  0.49983998     1.06100
C2912       C  0.67227278  0.74901431  0.07788164     1.09100
C2913       C  0.67251509  0.75131312  0.42166366     1.06900
H2914       H  0.70661434  0.79386359  0.04368374     0.32500
O2915       O  0.71936993  0.78111860  0.03082752    -1.29500
H2916       H  0.70615936  0.70600704  0.45571003     0.32100
O2917       O  0.71894410  0.71869376  0.46858750    -1.31100
O2918       O  0.79973146  0.83709703  0.49999871    -0.86900
O2919       O  0.79986125  0.66293648  0.49890043    -0.88400
O2920       O  0.75154713  0.80007622  0.08660549    -0.87000
O2921       O  0.74914592  0.79902139  0.41237958    -0.87000
O2922       O  0.74919109  0.69969243  0.41252265    -0.86700
O2923       O  0.74986954  0.70007140  0.08633053    -0.86600
O2924       O  0.83710090  0.75023245  0.04928720    -0.86900
O2925       O  0.83670536  0.74939718  0.45039417    -0.86400
O2926       O  0.80032649  0.74996543  0.08657611    -0.87500
O2927       O  0.79994899  0.74895539  0.41307022    -0.86600
O2928       O  0.74923497  0.83732483  0.04943916    -0.87000
O2929       O  0.74944117  0.66266568  0.04933196    -0.86700
O2930       O  0.75151706  0.66244520  0.44964175    -0.86400
O2931       O  0.74853740  0.83647910  0.44935738    -0.86800
O2932       O  0.83668324  0.79983836  0.49999594    -0.87100
O2933       O  0.83666223  0.70028225  0.49916536    -0.88400
Zr2934     Zr  0.75002693  0.81190906  0.49972062     2.83100
Zr2935     Zr  0.74989798  0.68784520  0.49953755     2.83500
Zr2936     Zr  0.75033912  0.75001015  0.06152016     2.84100
Zr2937     Zr  0.75010330  0.74959624  0.43801098     2.83400
Zr2938     Zr  0.81141847  0.74999828  0.49989195     2.84200
O2939       O  0.78094594  0.71870334  0.46880223    -1.09000
O2940       O  0.78107073  0.78121691  0.03079277    -1.08500
C2941       C  0.82787425  0.82815355  0.50002039     1.06200
C2942       C  0.82799872  0.67197105  0.49882475     1.08800
C2943       C  0.75039917  0.82827717  0.07761081     1.06300
C2944       C  0.74846707  0.82734263  0.42108990     1.06700
C2945       C  0.75046104  0.67148401  0.42147156     1.06300
C2946       C  0.74950944  0.67174245  0.07757258     1.05800
C2947       C  0.82849491  0.75016959  0.07758910     1.06300
C2948       C  0.82807019  0.74907964  0.42211907     1.05800
H2949       H  0.79380036  0.70584229  0.04341950     0.32400
O2950       O  0.78101003  0.71862533  0.03069923    -1.30100
H2951       H  0.79367562  0.79376785  0.45581846     0.32500
O2952       O  0.78097071  0.78102562  0.46864418    -1.31500
C2953       C  0.74842406  0.63264637  0.15544838    -0.21700
C2954       C  0.74913188  0.60144956  0.14721915    -0.09800
C2955       C  0.74975467  0.59366214  0.11579815     0.29100
C2956       C  0.74986433  0.61657412  0.09349000    -0.21700
C2957       C  0.74927763  0.64778057  0.10173696    -0.09800
C2958       C  0.74850980  0.65554949  0.13314189     0.29100
F2959       F  0.74785099  0.68524658  0.14257847    -0.20300
H2960       H  0.74785498  0.63952234  0.17931706     0.17500
H2961       H  0.75045267  0.60970375  0.06961856     0.17500
F2962       F  0.75029247  0.56395933  0.10634793    -0.20300
C2963       C  0.77272455  0.85143195  0.12473781    -0.21700
C2964       C  0.75050590  0.85211011  0.10155659    -0.09800
C2965       C  0.72863058  0.87570785  0.10144041     0.29100
C2966       C  0.72921563  0.89842116  0.12412370    -0.21700
C2967       C  0.75144651  0.89776844  0.14728809    -0.09800
C2968       C  0.77337412  0.87421754  0.14737050     0.29100
F2969       F  0.79599433  0.87389199  0.16865830    -0.20300
H2970       H  0.78992779  0.83355439  0.12493123     0.17500
H2971       H  0.71198451  0.91627363  0.12393719     0.17500
F2972       F  0.70614942  0.87619849  0.08001499    -0.20300
C2973       C  0.75421989  0.86708692  0.34369923    -0.21700
C2974       C  0.74687436  0.89756284  0.35134591    -0.09800
C2975       C  0.73921297  0.90448737  0.38198986     0.29100
C2976       C  0.73971748  0.88157606  0.40434965    -0.21700
C2977       C  0.74759309  0.85120230  0.39681241    -0.09800
C2978       C  0.75461577  0.84415765  0.36601529     0.29100
F2979       F  0.76262303  0.81531075  0.35735950    -0.20300
H2980       H  0.76023739  0.86094572  0.32039245     0.17500
H2981       H  0.73374893  0.88770036  0.42767099     0.17500
F2982       F  0.73088599  0.93329004  0.39047906    -0.20300
C2983       C  0.77163140  0.60121962  0.37502702    -0.21700
C2984       C  0.74910816  0.60156051  0.35213693    -0.09800
C2985       C  0.72696159  0.62489846  0.35224919     0.29100
C2986       C  0.72774968  0.64787402  0.37470313    -0.21700
C2987       C  0.75033354  0.64758987  0.39754478    -0.09800
C2988       C  0.77235469  0.62412276  0.39754730     0.29100
F2989       F  0.79507601  0.62393131  0.41872914    -0.20300
H2990       H  0.78898639  0.58348971  0.37510235     0.17500
H2991       H  0.71036863  0.66557765  0.37465339     0.17500
F2992       F  0.70402787  0.62483412  0.33129491    -0.20300
C2993       C  0.88186794  0.59518332  0.25951991    -0.21700
C2994       C  0.85125468  0.60293304  0.25353152    -0.09800
C2995       C  0.84400356  0.63403724  0.24835015     0.29100
C2996       C  0.86689815  0.65642890  0.24849150    -0.21700
C2997       C  0.89762236  0.64859154  0.25374037    -0.09800
C2998       C  0.90476882  0.61758217  0.25967583     0.29100
F2999       F  0.93385354  0.60868363  0.26575093    -0.20300
H3000       H  0.88825338  0.57161611  0.26405256     0.17500
H3001       H  0.86048855  0.67998151  0.24393562     0.17500
F3002       F  0.81490220  0.64295522  0.24239454    -0.20300
C3003       C  0.86838145  0.84491274  0.25050062    -0.21700
C3004       C  0.89932529  0.85349945  0.25073958    -0.09800
C3005       C  0.90663794  0.88501483  0.25112744     0.29100
C3006       C  0.88348803  0.90707570  0.25096970    -0.21700
C3007       C  0.85253570  0.89844532  0.25046407    -0.09800
C3008       C  0.84526509  0.86693670  0.25040444     0.29100
F3009       F  0.81585908  0.85710729  0.25021619    -0.20300
H3010       H  0.86184599  0.82095293  0.25033164     0.17500
H3011       H  0.88996672  0.93105263  0.25118896     0.17500
F3012       F  0.93607151  0.89477254  0.25156208    -0.20300
C3013       C  0.59395952  0.61706835  0.24889307    -0.21700
C3014       C  0.60205197  0.64824905  0.25017113    -0.09800
C3015       C  0.63334632  0.65598459  0.25104823     0.29100
C3016       C  0.65564115  0.63305430  0.25062697    -0.21700
C3017       C  0.64754123  0.60185454  0.24934859    -0.09800
C3018       C  0.61626459  0.59413817  0.24851789     0.29100
F3019       F  0.60695258  0.56446136  0.24737768    -0.20300
H3020       H  0.57019960  0.61023433  0.24817169     0.17500
H3021       H  0.67939665  0.63990773  0.25139218     0.17500
F3022       F  0.64269586  0.68565915  0.25237983    -0.20300
C3023       C  0.59534768  0.88236292  0.25452220    -0.21700
C3024       C  0.60328248  0.85120625  0.25234450    -0.09800
C3025       C  0.63448691  0.84327853  0.25043714     0.29100
C3026       C  0.65683380  0.86611736  0.24978860    -0.21700
C3027       C  0.64881736  0.89732453  0.25145183    -0.09800
C3028       C  0.61769057  0.90514555  0.25433014     0.29100
F3029       F  0.60856681  0.93477828  0.25722470    -0.20300
H3030       H  0.57167910  0.88929906  0.25649188     0.17500
H3031       H  0.68052309  0.85921337  0.24792812     0.17500
F3032       F  0.64365999  0.81353790  0.24908247    -0.20300
C3033       C  0.90632066  0.74923331  0.11692765    -0.21700
C3034       C  0.89822091  0.75116264  0.14808121    -0.09800
C3035       C  0.86692347  0.75279954  0.15567776     0.29100
C3036       C  0.84464238  0.75235978  0.13272295    -0.21700
C3037       C  0.85272688  0.75038352  0.10158741    -0.09800
C3038       C  0.88402526  0.74879844  0.09395825     0.29100
F3039       F  0.89335960  0.74662543  0.06435371    -0.20300
H3040       H  0.93007414  0.74788536  0.11015724     0.17500
H3041       H  0.82089208  0.75370148  0.13950556     0.17500
F3042       F  0.85755484  0.75496571  0.18526368    -0.20300
C3043       C  0.59474541  0.74546304  0.11768130    -0.21700
C3044       C  0.60279077  0.74903363  0.14871696    -0.09800
C3045       C  0.63401324  0.75224218  0.15613752     0.29100
C3046       C  0.65623992  0.75203377  0.13308764    -0.21700
C3047       C  0.64816574  0.74866041  0.10204110    -0.09800
C3048       C  0.61696976  0.74523637  0.09463901     0.29100
F3049       F  0.60767514  0.74150448  0.06517326    -0.20300
H3050       H  0.57106762  0.74273892  0.11105350     0.17500
H3051       H  0.67992052  0.75477040  0.13970167     0.17500
F3052       F  0.64332247  0.75590133  0.18560441    -0.20300
C3053       C  0.63275674  0.75094745  0.34416286    -0.21700
C3054       C  0.60181563  0.75201381  0.35272946    -0.09800
C3055       C  0.59447621  0.75339868  0.38417112     0.29100
C3056       C  0.61755389  0.75332210  0.40622365    -0.21700
C3057       C  0.64848350  0.75193467  0.39767447    -0.09800
C3058       C  0.65583988  0.75093796  0.36621321     0.29100
F3059       F  0.68526306  0.74976316  0.35648432    -0.20300
H3060       H  0.63928875  0.74996134  0.32023522     0.17500
H3061       H  0.61101962  0.75429353  0.43014998     0.17500
F3062       F  0.56505972  0.75482516  0.39387904    -0.20300
C3063       C  0.90571269  0.75202532  0.38312437    -0.21700
C3064       C  0.89769932  0.74992612  0.35198753    -0.09800
C3065       C  0.86651917  0.74724176  0.34422883     0.29100
C3066       C  0.84421655  0.74691002  0.36709939    -0.21700
C3067       C  0.85224127  0.74911183  0.39823051    -0.09800
C3068       C  0.88342658  0.75158858  0.40598998     0.29100
F3069       F  0.89266150  0.75378838  0.43562572    -0.20300
H3070       H  0.92939259  0.75410715  0.38997407     0.13100
H3071       H  0.82052801  0.74484613  0.36026776     0.17500
F3072       F  0.85731625  0.74470274  0.31460854    -0.20300
C3073       C  0.86846748  0.90485941  0.49220455    -0.21700
C3074       C  0.89869288  0.89710933  0.00033096    -0.09800
C3075       C  0.90511853  0.86668505  0.00908112     0.29100
C3076       C  0.88211040  0.84445580  0.00864927    -0.21700
C3077       C  0.85209494  0.85202304  0.99999944    -0.09800
C3078       C  0.84539145  0.88274655  0.49216389     0.29100
F3079       F  0.81677948  0.89143953  0.48391911    -0.20300
H3080       H  0.86266320  0.92808709  0.48561980     0.17500
H3081       H  0.88777913  0.82130527  0.01560867     0.17500
F3082       F  0.93338528  0.85844450  0.01884810    -0.20300
C3083       C  0.84421627  0.61708438  0.49354345    -0.21700
C3084       C  0.85215115  0.64784601  0.99826144    -0.09800
C3085       C  0.88308464  0.65514878  0.00357855     0.29100
C3086       C  0.90532927  0.63217773  0.00327209    -0.21700
C3087       C  0.89749982  0.60137772  0.99772047    -0.09800
C3088       C  0.86647102  0.59410079  0.49325362     0.29100
F3089       F  0.85743206  0.56474253  0.48813153    -0.20300
H3090       H  0.82064563  0.61055054  0.48982668     0.17500
H3091       H  0.92878760  0.63861519  0.00779529     0.17500
F3092       F  0.89202758  0.68436963  0.00960743    -0.20300
C3093       C  0.63257596  0.90553395  0.00716636    -0.21700
C3094       C  0.60234886  0.89793130  0.99939640    -0.09800
C3095       C  0.59545960  0.86732769  0.49160403     0.29100
C3096       C  0.61829557  0.84496050  0.49203763    -0.21700
C3097       C  0.64858016  0.85245293  0.99995632    -0.09800
C3098       C  0.65544869  0.88316013  0.00752771     0.29100
F3099       F  0.68412508  0.89165912  0.01576158    -0.20300
H3100       H  0.63856424  0.92886002  0.01332593     0.17500
H3101       H  0.61229738  0.82165887  0.48579625     0.17500
F3102       F  0.56686270  0.85883611  0.48316060    -0.20300
C3103       C  0.65518137  0.61734850  0.99737341    -0.21700
C3104       C  0.64712398  0.64855288  0.99836722    -0.09800
C3105       C  0.61577745  0.65633087  0.49780079     0.29100
C3106       C  0.59345903  0.63341204  0.49828963    -0.21700
C3107       C  0.60161845  0.60218033  0.99886982    -0.09800
C3108       C  0.63288766  0.59444864  0.99742004     0.29100
F3109       F  0.64222488  0.56477962  0.99591129    -0.20300
H3110       H  0.67892623  0.61045668  0.99651026     0.17500
H3111       H  0.56968660  0.64025605  0.49776536     0.17500
F3112       F  0.60644222  0.68599810  0.49630724    -0.20300
C3113       C  0.86698923  0.49907831  0.40572756    -0.21700
C3114       C  0.89800338  0.49911052  0.39734743    -0.09800
C3115       C  0.90547137  0.99902134  0.36585086     0.29100
C3116       C  0.88246209  0.99914154  0.34365612    -0.21700
C3117       C  0.85141865  0.49941456  0.35208159    -0.09800
C3118       C  0.84397419  0.49930036  0.38353416     0.29100
F3119       F  0.81449129  0.49959818  0.39311810    -0.20300
H3120       H  0.86034596  0.49905000  0.42963845     0.17500
H3121       H  0.88912241  0.99907650  0.31974651     0.17500
F3122       F  0.93495362  0.99889759  0.35623224    -0.20300
C3123       C  0.65497011  0.49843797  0.38170969    -0.21700
C3124       C  0.64687440  0.49838640  0.35052775    -0.09800
C3125       C  0.61558105  0.99842574  0.34278038     0.29100
C3126       C  0.59327114  0.99846102  0.36572300    -0.21700
C3127       C  0.60139854  0.49851200  0.39692519    -0.09800
C3128       C  0.63270051  0.49853588  0.40461637     0.29100
F3129       F  0.64210063  0.49882771  0.43426631    -0.20300
H3130       H  0.67873119  0.49855514  0.38858845     0.17500
H3131       H  0.56949626  0.99856009  0.35889023     0.17500
F3132       F  0.60626278  0.99852290  0.31308962    -0.20300
C3133       C  0.59543288  0.00861319  0.13136555    -0.21700
C3134       C  0.60291089  0.50178956  0.10075103    -0.09800
C3135       C  0.63368050  0.49556298  0.09336376     0.29100
C3136       C  0.65605562  0.49560913  0.11621292    -0.21700
C3137       C  0.64849041  0.50193127  0.14690528    -0.09800
C3138       C  0.61783974  0.00884723  0.15416471     0.29100
F3139       F  0.60939681  0.01621905  0.18320924    -0.20300
H3140       H  0.57214137  0.01398663  0.13777545     0.17500
H3141       H  0.67935985  0.49027236  0.10980997     0.17500
F3142       F  0.64228889  0.48883956  0.06420723    -0.20300
C3143       C  0.88282470  0.99991066  0.15570557    -0.21700
C3144       C  0.85190248  0.49757131  0.14747402    -0.09800
C3145       C  0.84445828  0.49531855  0.11606315     0.29100
C3146       C  0.86742316  0.49545055  0.09382092    -0.21700
C3147       C  0.89839256  0.49760191  0.10210544    -0.09800
C3148       C  0.90579055  0.99987702  0.13346950     0.29100
F3149       F  0.93521072  0.00235020  0.14295482    -0.20300
H3150       H  0.88944361  0.00198890  0.17954221     0.17500
H3151       H  0.86078029  0.49383510  0.06995517     0.17500
F3152       F  0.81503374  0.49290050  0.10656203    -0.20300
C3153       C  0.00895290  0.63232236  0.40570765    -0.21700
C3154       C  0.49797042  0.60280023  0.39873145    -0.09800
C3155       C  0.48713587  0.59681820  0.36891183     0.29100
C3156       C  0.48764073  0.61979513  0.34665720    -0.21700
C3157       C  0.49888448  0.64921590  0.35352104    -0.09800
C3158       C  0.00958345  0.65528001  0.38340842     0.29100
F3159       F  0.02153887  0.68303733  0.39095686    -0.20300
H3160       H  0.01769885  0.63753865  0.42836205     0.17500
H3161       H  0.47893137  0.61455602  0.32399674     0.17500
F3162       F  0.47552321  0.56895387  0.36127759    -0.20300
C3163       C  0.01924502  0.84889955  0.37886611    -0.21700
C3164       C  0.50146936  0.85270513  0.35237690    -0.09800
C3165       C  0.48372782  0.87935679  0.34897452     0.29100
C3166       C  0.48395377  0.90188517  0.37173484    -0.21700
C3167       C  0.50172064  0.89810442  0.39821978    -0.09800
C3168       C  0.01953451  0.87149251  0.40159670     0.29100
F3169       F  0.03792699  0.86779953  0.42634905    -0.20300
H3170       H  0.03329798  0.82863289  0.38170603     0.17500
H3171       H  0.46980509  0.92208723  0.36892003     0.17500
F3172       F  0.46539580  0.88313142  0.32416436    -0.20300
C3173       C  0.49950566  0.84407916  0.11757536    -0.21700
C3174       C  0.49882266  0.85260888  0.14868217    -0.09800
C3175       C  0.99752468  0.88409397  0.15615873     0.29100
C3176       C  0.99746313  0.90619629  0.13305022    -0.21700
C3177       C  0.49856358  0.89767321  0.10194704    -0.09800
C3178       C  0.49930973  0.86617379  0.09446890     0.29100
F3179       F  0.50003114  0.85644236  0.06488774    -0.20300
H3180       H  0.50032819  0.82013515  0.11092544     0.17500
H3181       H  0.99661410  0.93014162  0.13969301     0.17500
F3182       F  0.99630471  0.89380081  0.18573534    -0.20300
C3183       C  0.49785190  0.59393037  0.13341238    -0.21700
C3184       C  0.50063814  0.60207767  0.10236233    -0.09800
C3185       C  0.00358359  0.63340231  0.09487724     0.29100
C3186       C  0.00353474  0.65573310  0.11789147    -0.21700
C3187       C  0.50062988  0.64760568  0.14893208    -0.09800
C3188       C  0.49781999  0.61626996  0.15643798     0.29100
F3189       F  0.49477553  0.60697020  0.18595776    -0.20300
H3190       H  0.49549428  0.57012259  0.14004772     0.17500
H3191       H  0.00588355  0.67953539  0.11123362     0.17500
F3192       F  0.00674362  0.64270892  0.06537190    -0.20300
O3193       O  0.50045210  0.54963728  0.58728905    -0.86900
O3194       O  0.49857004  0.55017578  0.91326222    -0.87100
O3195       O  0.54927916  0.58710676  0.50042204    -0.88800
O3196       O  0.94967356  0.58646920  0.49916405    -0.87500
O3197       O  0.91289944  0.54911476  0.49865517    -0.87100
O3198       O  0.58619937  0.54989920  0.49917186    -0.88500
O3199       O  0.49928183  0.58728889  0.95064554    -0.86900
O3200       O  0.49989647  0.58666171  0.55015133    -0.86500
Zr3201     Zr  0.49960821  0.56167348  0.50015827     2.84300
O3202       O  0.96884343  0.53076177  0.96886683    -1.08500
O3203       O  0.53084416  0.53093118  0.53076163    -1.09200
C3204       C  0.50030441  0.57790918  0.57841205     1.06200
C3205       C  0.49867160  0.57843649  0.92237195     1.06100
C3206       C  0.57745152  0.57818565  0.49970761     1.09100
C3207       C  0.92155702  0.57743623  0.49853372     1.06900
H3208       H  0.54330402  0.54399222  0.95570728     0.32500
O3209       O  0.53069473  0.53116395  0.96854927    -1.29500
H3210       H  0.95595884  0.54348385  0.54397144     0.32100
O3211       O  0.96879946  0.53076475  0.53115909    -1.31100
O3212       O  0.50000968  0.94998841  0.91303049    -0.86900
O3213       O  0.49952157  0.95005178  0.58687889    -0.88400
O3214       O  0.58615717  0.49904055  0.94926781    -0.87000
O3215       O  0.91339637  0.49910621  0.94960817    -0.87000
O3216       O  0.91347494  0.49861439  0.54980374    -0.86700
O3217       O  0.58702760  0.50105423  0.54873051    -0.86600
O3218       O  0.55013647  0.91313095  0.49998566    -0.86900
O3219       O  0.95083555  0.91241007  0.50023787    -0.86400
O3220       O  0.58702866  0.95036883  0.49878552    -0.87500
O3221       O  0.91366395  0.94944940  0.49984542    -0.86600
O3222       O  0.54922613  0.49902214  0.91211491    -0.87000
O3223       O  0.55043528  0.50098326  0.58626113    -0.86700
O3224       O  0.95058503  0.49892540  0.58683625    -0.86400
O3225       O  0.95035919  0.49930182  0.91249347    -0.86800
O3226       O  0.50227664  0.91281183  0.95020636    -0.87100
O3227       O  0.49942056  0.91286912  0.54970038    -0.88400
Zr3228     Zr  0.49980349  0.49994158  0.93790293     2.83100
Zr3229     Zr  0.50026103  0.49989021  0.56170279     2.83500
Zr3230     Zr  0.56137724  0.50001893  0.49935135     2.84100
Zr3231     Zr  0.93839070  0.49948898  0.49980385     2.83400
Zr3232     Zr  0.50033050  0.93806657  0.49996024     2.84200
O3233       O  0.96933214  0.96882869  0.53086833    -1.09000
O3234       O  0.53081080  0.96884579  0.96847205    -1.08500
C3235       C  0.50147149  0.92184626  0.92206675     1.06200
C3236       C  0.49916914  0.92174368  0.57797036     1.08800
C3237       C  0.57739884  0.49870199  0.92099095     1.06300
C3238       C  0.92221780  0.49908036  0.92129982     1.06700
C3239       C  0.92240384  0.49850394  0.57807142     1.06300
C3240       C  0.57853116  0.50133280  0.57705953     1.05800
C3241       C  0.57824896  0.92206006  0.49925111     1.06300
C3242       C  0.92264048  0.92120193  0.50019346     1.05800
H3243       H  0.54422798  0.95616652  0.54369089     0.32400
O3244       O  0.53136051  0.96885518  0.53094457    -1.30100
H3245       H  0.95664555  0.95545993  0.95589114     0.32500
O3246       O  0.96925911  0.96843759  0.96865271    -1.31500
O3247       O  0.50067280  0.70013061  0.66406660    -0.86900
O3248       O  0.50023012  0.70135912  0.83835201    -0.87100
O3249       O  0.54957358  0.66330812  0.75078358    -0.88800
O3250       O  0.94972775  0.66393069  0.75247791    -0.87500
O3251       O  0.91288617  0.70126836  0.75201716    -0.87100
O3252       O  0.58652971  0.70044233  0.75108032    -0.88500
O3253       O  0.49895058  0.66397206  0.80126431    -0.86900
O3254       O  0.49990012  0.66326815  0.70140833    -0.86500
Zr3255     Zr  0.49973616  0.68866775  0.75114660     2.84300
O3256       O  0.96899838  0.71998683  0.78179718    -1.08500
O3257       O  0.53076765  0.71911159  0.71995829    -1.09200
C3258       C  0.50037701  0.67189942  0.67310929     1.06200
C3259       C  0.49953506  0.67306847  0.82950160     1.06100
C3260       C  0.57777498  0.67219401  0.75084662     1.09100
C3261       C  0.92157890  0.67289556  0.75283247     1.06900
H3262       H  0.54356003  0.70655069  0.79503247     0.32500
O3263       O  0.53086588  0.71930616  0.78219177    -1.29500
H3264       H  0.95628021  0.70662847  0.70693539     0.32100
O3265       O  0.96912994  0.71942589  0.71963724    -1.31100
O3266       O  0.50165395  0.80064207  0.83778574    -0.86900
O3267       O  0.49982879  0.80038981  0.66409801    -0.88400
O3268       O  0.58648415  0.75118112  0.80070595    -0.87000
O3269       O  0.91324162  0.75095165  0.79986459    -0.87000
O3270       O  0.91363728  0.75127250  0.70059116    -0.86700
O3271       O  0.58714400  0.74958620  0.70130279    -0.86600
O3272       O  0.55091648  0.83675576  0.75186016    -0.86900
O3273       O  0.95162763  0.83828727  0.75088457    -0.86400
O3274       O  0.58741178  0.79915034  0.75184099    -0.87500
O3275       O  0.91447601  0.80132905  0.75034778    -0.86600
O3276       O  0.54954885  0.75126485  0.83783484    -0.87000
O3277       O  0.55037993  0.74946848  0.66394972    -0.86700
O3278       O  0.95054871  0.75095425  0.66340725    -0.86400
O3279       O  0.94994177  0.75053555  0.83727969    -0.86800
O3280       O  0.50081080  0.83772264  0.80048120    -0.87100
O3281       O  0.50007524  0.83761587  0.70126572    -0.88400
Zr3282     Zr  0.49999756  0.75082955  0.81265263     2.83100
Zr3283     Zr  0.50033219  0.75029811  0.68886856     2.83500
Zr3284     Zr  0.56148756  0.75008099  0.75093073     2.84100
Zr3285     Zr  0.93870303  0.75097349  0.75046181     2.83400
Zr3286     Zr  0.50077529  0.81231864  0.75082970     2.84200
O3287       O  0.96970304  0.78171802  0.71963955    -1.09000
O3288       O  0.53126715  0.78151237  0.78202001    -1.08500
C3289       C  0.50137968  0.82878575  0.82866043     1.06200
C3290       C  0.49965415  0.82871186  0.67302114     1.08800
C3291       C  0.57766700  0.75149411  0.82895962     1.06300
C3292       C  0.92182957  0.75055974  0.82815096     1.06700
C3293       C  0.92234685  0.75124090  0.67229748     1.06300
C3294       C  0.57855016  0.74934270  0.67295743     1.05800
C3295       C  0.57898062  0.82748533  0.75215937     1.06300
C3296       C  0.92345969  0.82958176  0.75064038     1.05800
H3297       H  0.54434800  0.79406311  0.70691312     0.32400
O3298       O  0.53146158  0.78137800  0.71961057    -1.30100
H3299       H  0.95667870  0.79492184  0.79454825     0.32500
O3300       O  0.96934149  0.78199911  0.78177866    -1.31500
O3301       O  0.83658681  0.99932685  0.69986485    -0.86900
O3302       O  0.66359865  0.00065261  0.69934806    -0.87100
O3303       O  0.74964259  0.94979114  0.66228968    -0.88800
O3304       O  0.74964171  0.54930005  0.66277991    -0.87500
O3305       O  0.74888952  0.58664664  0.69983588    -0.87100
O3306       O  0.75261271  0.91255223  0.69936168    -0.88500
O3307       O  0.70055290  0.00081859  0.66222488    -0.86900
O3308       O  0.79965699  0.99852420  0.66269022    -0.86500
Zr3309     Zr  0.75004768  0.99963680  0.68778794     2.84300
O3310       O  0.71907958  0.53078260  0.71847225    -1.08500
O3311       O  0.78123964  0.96895033  0.71849473    -1.09200
C3312       C  0.82778998  0.99855194  0.67156287     1.06200
C3313       C  0.67239624  0.00119543  0.67110862     1.06100
C3314       C  0.75137432  0.92161034  0.67121599     1.09100
C3315       C  0.74905710  0.57759039  0.67156016     1.06900
H3316       H  0.70642329  0.95544997  0.70524649     0.32500
O3317       O  0.71910890  0.96828356  0.71808959    -1.29500
H3318       H  0.79350335  0.54407444  0.70599399     0.32100
O3319       O  0.78073831  0.53121748  0.71866002    -1.31100
O3320       O  0.66275957  0.99887914  0.79841964    -0.86900
O3321       O  0.83644987  0.99993588  0.79959332    -0.88400
O3322       O  0.70106875  0.91225229  0.74977700    -0.87000
O3323       O  0.69975973  0.58692854  0.74963756    -0.87000
O3324       O  0.79903720  0.58721782  0.75182893    -0.86700
O3325       O  0.80036811  0.91334896  0.74993084    -0.86600
O3326       O  0.74803159  0.94968518  0.83624173    -0.86900
O3327       O  0.75030833  0.54919104  0.83724895    -0.86400
O3328       O  0.74906601  0.91257594  0.79893622    -0.87500
O3329       O  0.74803093  0.58656721  0.80022533    -0.86600
O3330       O  0.66417431  0.94951242  0.75018280    -0.87000
O3331       O  0.83704623  0.95077101  0.74979201    -0.86700
O3332       O  0.83640548  0.55041071  0.75190735    -0.86400
O3333       O  0.66316650  0.54942900  0.74926775    -0.86800
O3334       O  0.69938568  0.99889732  0.83589798    -0.87100
O3335       O  0.79931713  0.99926764  0.83654508    -0.88400
Zr3336     Zr  0.68855499  0.99960604  0.74914335     2.83100
Zr3337     Zr  0.81142883  0.00032188  0.74978665     2.83500
Zr3338     Zr  0.75044716  0.93789913  0.74921550     2.84100
Zr3339     Zr  0.74946937  0.56176891  0.74992225     2.83400
Zr3340     Zr  0.74956079  0.99961115  0.81137456     2.84200
O3341       O  0.78037457  0.53100568  0.78090497    -1.09000
O3342       O  0.71923823  0.96862511  0.78003895    -1.08500
C3343       C  0.67127325  0.99865188  0.82674068     1.06200
C3344       C  0.82752212  0.99947881  0.82781947     1.08800
C3345       C  0.67294252  0.92122747  0.75047267     1.06300
C3346       C  0.67167294  0.57781196  0.74949880     1.06700
C3347       C  0.82729360  0.57865391  0.75246907     1.06300
C3348       C  0.82843589  0.92242612  0.75002504     1.05800
C3349       C  0.74803101  0.92142907  0.82722643     1.06300
C3350       C  0.74908596  0.57740818  0.82837813     1.05800
H3351       H  0.79360900  0.95602919  0.79347397     0.32400
O3352       O  0.78094128  0.96882532  0.78063740    -1.30100
H3353       H  0.70567300  0.54335291  0.79351207     0.32500
O3354       O  0.71861377  0.53073659  0.78071345    -1.31500
O3355       O  0.69958961  0.66331224  0.99888043    -0.86900
O3356       O  0.70065580  0.83718293  0.99970392    -0.87100
O3357       O  0.66338061  0.74925765  0.54962405    -0.88800
O3358       O  0.66370664  0.75113717  0.94996966    -0.87500
O3359       O  0.70062634  0.75073627  0.91283064    -0.87100
O3360       O  0.70034239  0.74929643  0.58678823    -0.88500
O3361       O  0.66362725  0.80006322  0.99974304    -0.86900
O3362       O  0.66288214  0.70077425  0.99921298    -0.86500
Zr3363     Zr  0.68869824  0.75009319  0.99976564     2.84300
O3364       O  0.71934952  0.78082388  0.96863238    -1.08500
O3365       O  0.71924370  0.71897330  0.53065944    -1.09200
C3366       C  0.67143038  0.67243637  0.99884766     1.06200
C3367       C  0.67252390  0.82834568  0.99981146     1.06100
C3368       C  0.67213411  0.74902943  0.57791792     1.09100
C3369       C  0.67252433  0.75129127  0.92171154     1.06900
H3370       H  0.70648042  0.79384094  0.54379600     0.32500
O3371       O  0.71924811  0.78111630  0.53093152    -1.29500
H3372       H  0.70618654  0.70588563  0.95568789     0.32100
O3373       O  0.71897996  0.71857307  0.96855618    -1.31100
O3374       O  0.79985647  0.83701127  0.99979093    -0.86900
O3375       O  0.79987792  0.66280747  0.99886889    -0.88400
O3376       O  0.75135282  0.79994627  0.58679603    -0.87000
O3377       O  0.74932899  0.79873209  0.91215293    -0.87000
O3378       O  0.74923748  0.69943842  0.91255188    -0.86700
O3379       O  0.74976388  0.69999965  0.58632998    -0.86600
O3380       O  0.83696160  0.75034171  0.54944120    -0.86900
O3381       O  0.83668884  0.74929664  0.95030492    -0.86400
O3382       O  0.80018695  0.74993832  0.58672862    -0.87500
O3383       O  0.79992410  0.74876367  0.91299390    -0.86600
O3384       O  0.74905939  0.83723140  0.54966456    -0.87000
O3385       O  0.74942652  0.66260820  0.54931889    -0.86700
O3386       O  0.75161135  0.66226315  0.94973485    -0.86400
O3387       O  0.74875859  0.83623182  0.94909895    -0.86800
O3388       O  0.83679314  0.79973341  0.99988445    -0.87100
O3389       O  0.83669328  0.70014713  0.99905742    -0.88400
Zr3390     Zr  0.75014198  0.81184852  0.99955329     2.83100
Zr3391     Zr  0.74995056  0.68778529  0.99953351     2.83500
Zr3392     Zr  0.75022308  0.74996324  0.56159125     2.84100
Zr3393     Zr  0.75013400  0.74940874  0.93794402     2.83400
Zr3394     Zr  0.81148628  0.74989735  0.99980012     2.84200
O3395       O  0.78100623  0.71856973  0.96875114    -1.09000
O3396       O  0.78095401  0.78123612  0.53092453    -1.08500
C3397       C  0.82799417  0.82805436  0.99986944     1.06200
C3398       C  0.82801542  0.67183670  0.99874829     1.08800
C3399       C  0.75019951  0.82814980  0.57782215     1.06300
C3400       C  0.74871339  0.82705793  0.92084326     1.06700
C3401       C  0.75053603  0.67124536  0.92155425     1.06300
C3402       C  0.74946229  0.67167437  0.57756914     1.05800
C3403       C  0.82835903  0.75022199  0.57774777     1.06300
C3404       C  0.82803621  0.74896098  0.92204276     1.05800
H3405       H  0.79373315  0.70587183  0.54345889     0.32400
O3406       O  0.78094283  0.71865980  0.53074331    -1.30100
H3407       H  0.79374591  0.79358889  0.95567597     0.32500
O3408       O  0.78103249  0.78087432  0.96852022    -1.31500
C3409       C  0.75031759  0.63266921  0.65550599    -0.21700
C3410       C  0.74878408  0.60149360  0.64734152    -0.09800
C3411       C  0.74724953  0.59368747  0.61595439     0.29100
C3412       C  0.74752300  0.61655350  0.59359347    -0.21700
C3413       C  0.74919642  0.64773618  0.60176695    -0.09800
C3414       C  0.75055781  0.65552703  0.63315353     0.29100
F3415       F  0.75231661  0.68519828  0.64252391    -0.20300
H3416       H  0.75152497  0.63955100  0.67934975     0.17500
H3417       H  0.74634265  0.60967550  0.56974618     0.17500
F3418       F  0.74535211  0.56401086  0.60660114    -0.20300
C3419       C  0.77256060  0.85132553  0.62489352    -0.21700
C3420       C  0.75030162  0.85196703  0.60175687    -0.09800
C3421       C  0.72845862  0.87559133  0.60158943     0.29100
C3422       C  0.72912848  0.89839338  0.62417073    -0.21700
C3423       C  0.75141513  0.89779555  0.64727478    -0.09800
C3424       C  0.77329222  0.87419584  0.64742763     0.29100
F3425       F  0.79593062  0.87389162  0.66869738    -0.20300
H3426       H  0.78973873  0.83342349  0.62511564     0.17500
H3427       H  0.71191735  0.91626450  0.62396005     0.17500
F3428       F  0.70594449  0.87603732  0.58019808    -0.20300
C3429       C  0.75498859  0.86687066  0.84354800    -0.21700
C3430       C  0.74718770  0.89724911  0.85112991    -0.09800
C3431       C  0.73913600  0.90408093  0.88168904     0.29100
C3432       C  0.73963418  0.88117028  0.90403412    -0.21700
C3433       C  0.74791982  0.85089595  0.89656824    -0.09800
C3434       C  0.75541145  0.84394016  0.86586606     0.29100
F3435       F  0.76392773  0.81520242  0.85733533    -0.20300
H3436       H  0.76135290  0.86082771  0.82030815     0.17500
H3437       H  0.73332096  0.88720976  0.92728614     0.17500
F3438       F  0.73040948  0.93278682  0.89009982    -0.20300
C3439       C  0.77153470  0.60076274  0.87536522    -0.21700
C3440       C  0.74908425  0.60116702  0.85240486    -0.09800
C3441       C  0.72701286  0.62457080  0.85242688     0.29100
C3442       C  0.72784089  0.64759503  0.87481920    -0.21700
C3443       C  0.75038577  0.64729157  0.89769469    -0.09800
C3444       C  0.77229950  0.62371911  0.89782829     0.29100
F3445       F  0.79497449  0.62348849  0.91906074    -0.20300
H3446       H  0.78882256  0.58296708  0.87551698     0.17500
H3447       H  0.71052362  0.66536051  0.87468937     0.17500
F3448       F  0.70412333  0.62453867  0.83142402    -0.20300
C3449       C  0.88166990  0.59541710  0.76005586    -0.21700
C3450       C  0.85110295  0.60307340  0.75372894    -0.09800
C3451       C  0.84385480  0.63412939  0.74825453     0.29100
C3452       C  0.86671781  0.65656237  0.74844280    -0.21700
C3453       C  0.89740991  0.64880235  0.75399604    -0.09800
C3454       C  0.90453864  0.61785186  0.76023929     0.29100
F3455       F  0.93358234  0.60905047  0.76664012    -0.20300
H3456       H  0.88804290  0.57189433  0.76482737     0.17500
H3457       H  0.86032448  0.68007080  0.74364414     0.17500
F3458       F  0.81480073  0.64294082  0.74191676    -0.20300
C3459       C  0.86855312  0.84511165  0.75235521    -0.21700
C3460       C  0.89946220  0.85366887  0.75082061    -0.09800
C3461       C  0.90676105  0.88515501  0.74946375     0.29100
C3462       C  0.88360331  0.90720739  0.74932926    -0.21700
C3463       C  0.85266976  0.89858542  0.75055163    -0.09800
C3464       C  0.84543702  0.86712451  0.75228667     0.29100
F3465       F  0.81607039  0.85733647  0.75402834    -0.20300
H3466       H  0.86204622  0.82118215  0.75364574     0.17500
H3467       H  0.89005114  0.93115865  0.74810310     0.17500
F3468       F  0.93617326  0.89487489  0.74800836    -0.20300
C3469       C  0.59386052  0.61700537  0.74971549    -0.21700
C3470       C  0.60195228  0.64819835  0.75063005    -0.09800
C3471       C  0.63325398  0.65593949  0.75123374     0.29100
C3472       C  0.65555183  0.63300767  0.75082462    -0.21700
C3473       C  0.64745535  0.60179523  0.74982815    -0.09800
C3474       C  0.61617165  0.59407275  0.74935334     0.29100
F3475       F  0.60685881  0.56438668  0.74857024    -0.20300
H3476       H  0.57009650  0.61016454  0.74925500     0.17500
H3477       H  0.67931037  0.63987333  0.75132984     0.17500
F3478       F  0.64261118  0.68562475  0.75222992    -0.20300
C3479       C  0.59537762  0.88235069  0.75447677    -0.21700
C3480       C  0.60331948  0.85117384  0.75263719    -0.09800
C3481       C  0.63453790  0.84322478  0.75108316     0.29100
C3482       C  0.65689564  0.86605121  0.75038679    -0.21700
C3483       C  0.64887361  0.89727238  0.75165516    -0.09800
C3484       C  0.61772677  0.90512578  0.75423967     0.29100
F3485       F  0.60858142  0.93478643  0.75675832    -0.20300
H3486       H  0.57169603  0.88931281  0.75617797     0.17500
H3487       H  0.68059811  0.85912527  0.74880060     0.17500
F3488       F  0.64371725  0.81347282  0.75012928    -0.20300
C3489       C  0.90623649  0.74967709  0.61703903    -0.21700
C3490       C  0.89815719  0.75126850  0.64821373    -0.09800
C3491       C  0.86684797  0.75255431  0.65584837     0.29100
C3492       C  0.84454272  0.75211132  0.63290795    -0.21700
C3493       C  0.85260930  0.75046517  0.60174754    -0.09800
C3494       C  0.88391828  0.74922893  0.59408706     0.29100
F3495       F  0.89324618  0.74739483  0.56445994    -0.20300
H3496       H  0.92999442  0.74861117  0.61023580     0.17500
H3497       H  0.82078746  0.75316610  0.63972222     0.17500
F3498       F  0.85748758  0.75433831  0.68546227    -0.20300
C3499       C  0.59461811  0.74591959  0.61779093    -0.21700
C3500       C  0.60274642  0.74897198  0.64885987    -0.09800
C3501       C  0.63401267  0.75172918  0.65627110     0.29100
C3502       C  0.65620144  0.75155462  0.63318321    -0.21700
C3503       C  0.64804636  0.74868500  0.60210437    -0.09800
C3504       C  0.61679992  0.74575927  0.59470976     0.29100
F3505       F  0.60740414  0.74262717  0.56520921    -0.20300
H3506       H  0.57090045  0.74359137  0.61115764     0.17500
H3507       H  0.67992170  0.75390860  0.63979986     0.17500
F3508       F  0.64340795  0.75489171  0.68576716    -0.20300
C3509       C  0.63269882  0.75157838  0.84427355    -0.21700
C3510       C  0.60175453  0.75198562  0.85288519    -0.09800
C3511       C  0.59442733  0.75272284  0.88434879     0.29100
C3512       C  0.61752845  0.75268957  0.90637090    -0.21700
C3513       C  0.64846468  0.75195040  0.89776751    -0.09800
C3514       C  0.65580262  0.75159127  0.86629502     0.29100
F3515       F  0.68523087  0.75110377  0.85652538    -0.20300
H3516       H  0.63922191  0.75111967  0.82032938     0.17500
H3517       H  0.61100565  0.75313002  0.93031465     0.17500
F3518       F  0.56500303  0.75340156  0.89410987    -0.20300
C3519       C  0.90564375  0.75191655  0.88311807    -0.21700
C3520       C  0.89761462  0.75010484  0.85197462    -0.09800
C3521       C  0.86642063  0.74771642  0.84417255     0.29100
C3522       C  0.84412650  0.74725553  0.86703046    -0.21700
C3523       C  0.85217914  0.74910428  0.89817150    -0.09800
C3524       C  0.88336318  0.75141345  0.90596423     0.29100
F3525       F  0.89260445  0.75338412  0.93561366    -0.20300
H3526       H  0.92933198  0.75381498  0.88999081     0.13100
H3527       H  0.82042577  0.74540204  0.86017918     0.17500
F3528       F  0.85719018  0.74562408  0.81452634    -0.20300
C3529       C  0.86865558  0.90469291  0.99181310    -0.21700
C3530       C  0.89859210  0.89719758  0.50034003    -0.09800
C3531       C  0.90511228  0.86667382  0.50868102     0.29100
C3532       C  0.88209064  0.84446346  0.50831732    -0.21700
C3533       C  0.85197771  0.85212136  0.50009857    -0.09800
C3534       C  0.84558186  0.88257755  0.99174057     0.29100
F3535       F  0.81704893  0.89119036  0.98314260    -0.20300
H3536       H  0.86292732  0.92785615  0.98494132     0.17500
H3537       H  0.88784326  0.82124351  0.51497200     0.17500
F3538       F  0.93350251  0.85829031  0.51795401    -0.20300
C3539       C  0.84434767  0.61708761  0.99241776    -0.21700
C3540       C  0.85214466  0.64798194  0.49837567    -0.09800
C3541       C  0.88320011  0.65540430  0.50275504     0.29100
C3542       C  0.90543466  0.63242308  0.50250650    -0.21700
C3543       C  0.89748066  0.60149085  0.49795748    -0.09800
C3544       C  0.86662333  0.59411440  0.99204218     0.29100
F3545       F  0.85777028  0.56491205  0.98580181    -0.20300
H3546       H  0.82087598  0.61068026  0.98792102     0.17500
H3547       H  0.92899624  0.63897893  0.50624548     0.17500
F3548       F  0.89230301  0.68476893  0.50774225    -0.20300
C3549       C  0.63246939  0.90559923  0.50714528    -0.21700
C3550       C  0.60227587  0.89801740  0.49923162    -0.09800
C3551       C  0.59549875  0.86720956  0.99191693     0.29100
C3552       C  0.61834818  0.84485470  0.99227610    -0.21700
C3553       C  0.64848756  0.85252945  0.49990304    -0.09800
C3554       C  0.65533624  0.88322359  0.50754730     0.29100
F3555       F  0.68398578  0.89170860  0.51588950    -0.20300
H3556       H  0.63843180  0.92890789  0.51339679     0.17500
H3557       H  0.61232300  0.82153533  0.98612897     0.17500
F3558       F  0.56685152  0.85866710  0.98369116    -0.20300
C3559       C  0.65516285  0.61736348  0.49927804    -0.21700
C3560       C  0.64708924  0.64856989  0.49867220    -0.09800
C3561       C  0.61580841  0.65633000  0.99894854     0.29100
C3562       C  0.59350199  0.63339756  0.99941219    -0.21700
C3563       C  0.60157725  0.60220986  0.49923568    -0.09800
C3564       C  0.63287310  0.59446184  0.49938401     0.29100
F3565       F  0.64224435  0.56477039  0.49960049    -0.20300
H3566       H  0.67891855  0.61046976  0.49968097     0.17500
H3567       H  0.56973660  0.64024998  0.00013293     0.17500
F3568       F  0.60645258  0.68603245  0.99903881    -0.20300
C3569       C  0.86719008  0.49760517  0.90552795    -0.21700
C3570       C  0.89818309  0.49876574  0.89716236    -0.09800
C3571       C  0.90561660  0.99975338  0.86568548     0.29100
C3572       C  0.88259370  0.99987051  0.84350615    -0.21700
C3573       C  0.85158641  0.49905552  0.85191978    -0.09800
C3574       C  0.84416834  0.49779289  0.88334666     0.29100
F3575       F  0.81469756  0.49685502  0.89291944    -0.20300
H3576       H  0.86056485  0.49667127  0.92942297     0.17500
H3577       H  0.88922891  0.00075043  0.81960798     0.17500
F3578       F  0.93508123  0.00081762  0.85607374    -0.20300
C3579       C  0.65500817  0.49579039  0.88168583    -0.21700
C3580       C  0.64699162  0.49813348  0.85057959    -0.09800
C3581       C  0.61576041  0.00052053  0.84286574     0.29100
C3582       C  0.59343169  0.00045554  0.86577462    -0.21700
C3583       C  0.60149286  0.49809742  0.89691762    -0.09800
C3584       C  0.63271573  0.49576918  0.90457227     0.29100
F3585       F  0.64200143  0.49345265  0.93416338    -0.20300
H3586       H  0.67871834  0.49399903  0.88851102     0.17500
H3587       H  0.56972810  0.00248833  0.85899360     0.17500
F3588       F  0.60655894  0.00318668  0.81326394    -0.20300
C3589       C  0.59509869  0.00704365  0.63172792    -0.21700
C3590       C  0.60284840  0.50197873  0.60084431    -0.09800
C3591       C  0.63388983  0.49765331  0.59324420     0.29100
C3592       C  0.65622641  0.49764801  0.61612238    -0.21700
C3593       C  0.64837699  0.50207111  0.64707110    -0.09800
C3594       C  0.61746334  0.00726277  0.65455708     0.29100
F3595       F  0.60864706  0.01284792  0.68388179    -0.20300
H3596       H  0.57159421  0.01101335  0.63836066     0.17500
H3597       H  0.67975900  0.49383137  0.60949262     0.17500
F3598       F  0.64287011  0.49296764  0.56381181    -0.20300
C3599       C  0.88276726  0.00075915  0.65577767    -0.21700
C3600       C  0.85186556  0.49794688  0.64749813    -0.09800
C3601       C  0.84448524  0.49531067  0.61610812     0.29100
C3602       C  0.86747570  0.49546861  0.59390547    -0.21700
C3603       C  0.89840497  0.49803418  0.60221633    -0.09800
C3604       C  0.90576084  0.00076852  0.63357649     0.29100
F3605       F  0.93513470  0.00377354  0.64305915    -0.20300
H3606       H  0.88932519  0.00319965  0.67959833     0.17500
H3607       H  0.86088634  0.49350179  0.57005019     0.17500
F3608       F  0.81510601  0.49243911  0.60659459    -0.20300
C3609       C  0.01045507  0.63184456  0.90532935    -0.21700
C3610       C  0.49845244  0.60266305  0.89863207    -0.09800
C3611       C  0.48667739  0.59699703  0.86912399     0.29100
C3612       C  0.48712603  0.62000423  0.84690444    -0.21700
C3613       C  0.49927551  0.64911479  0.85351278    -0.09800
C3614       C  0.01106279  0.65481950  0.88304603     0.29100
F3615       F  0.02405423  0.68220629  0.89020341    -0.20300
H3616       H  0.01999024  0.63674774  0.92773150     0.17500
H3617       H  0.47762918  0.61506615  0.82449675     0.17500
F3618       F  0.47414123  0.56945082  0.86181938    -0.20300
C3619       C  0.01952113  0.84898224  0.87876481    -0.21700
C3620       C  0.50153285  0.85268646  0.85241417    -0.09800
C3621       C  0.48364068  0.87924128  0.84908793     0.29100
C3622       C  0.48387924  0.90176194  0.87183752    -0.21700
C3623       C  0.50184391  0.89807168  0.89819534    -0.09800
C3624       C  0.01984905  0.87158466  0.90146920     0.29100
F3625       F  0.03845716  0.86803567  0.92608411    -0.20300
H3626       H  0.03370781  0.82879566  0.88150626     0.17500
H3627       H  0.46960600  0.92188887  0.86911342     0.17500
F3628       F  0.46517936  0.88293205  0.82435921    -0.20300
C3629       C  0.49963641  0.84416063  0.61781596    -0.21700
C3630       C  0.49900612  0.85272296  0.64891298    -0.09800
C3631       C  0.99773135  0.88421816  0.65635387     0.29100
C3632       C  0.99762824  0.90629304  0.63321105    -0.21700
C3633       C  0.49864663  0.89773257  0.60211008    -0.09800
C3634       C  0.49937165  0.86622286  0.59467973     0.29100
F3635       F  0.49996869  0.85644438  0.56511342    -0.20300
H3636       H  0.50043309  0.82020874  0.61119225     0.17500
H3637       H  0.99679571  0.93024689  0.63982496     0.17500
F3638       F  0.99655238  0.89395997  0.68592283    -0.20300
C3639       C  0.49928978  0.59387118  0.63364839    -0.21700
C3640       C  0.50049055  0.60210129  0.60251445    -0.09800
C3641       C  0.00179445  0.63352203  0.59495162     0.29100
C3642       C  0.00176590  0.65584478  0.61796787    -0.21700
C3643       C  0.50048160  0.64763222  0.64909326    -0.09800
C3644       C  0.49926598  0.61620856  0.65667771     0.29100
F3645       F  0.49792944  0.60679981  0.68629118    -0.20300
H3646       H  0.49825569  0.56999032  0.64036248     0.17500
H3647       H  0.00278519  0.67971903  0.61122900     0.17500
F3648       F  0.00320536  0.64295872  0.56535199    -0.20300
loop_ 
_geom_bond_atom_site_label_1 
_geom_bond_atom_site_label_2 
_geom_bond_distance 
_geom_bond_site_symmetry_2 
_ccdc_geom_bond_type 
O1          Zr37   2.436   1_545  S
O1           C12   1.293       .  A
O2          Zr36   2.442       .  S
O2           C13   1.293       .  A
O3           Zr9   2.442   1_455  S
O3           C14   1.294   1_554  A
O4        Zr1833   2.440   1_556  S
O4           C15   1.293       .  A
O5          Zr39   2.434   1_545  S
O5           C15   1.292       .  A
O6          Zr38   2.432   1_545  S
O6           C14   1.291       .  A
O7         Zr465   2.431       .  S
O7           C13   1.292       .  A
O8           Zr9   2.435       .  S
O8           C12   1.292   1_655  A
Zr9        O1828   2.440   1_554  S
Zr9         O463   2.431   1_554  S
Zr9          O11   2.336   1_655  S
Zr9        O2290   2.339   1_554  S
Zr9        O1843   2.341       .  S
Zr9         O473   2.342   1_654  S
O10       Zr2289   2.338       .  S
O10       Zr1860   2.336       .  S
O10        Zr495   2.336   1_545  S
O11         Zr37   2.336   1_545  S
O11         Zr38   2.339   1_544  S
C12         C448   1.487       .  S
C13         C418   1.482       .  S
C14         C371   1.488       .  S
C15         C351   1.487       .  S
H16          O17   0.966       .  S
O17         Zr36   2.337   1_455  S
O17        Zr465   2.342   1_455  S
O17        Zr494   2.339       .  S
H18          O19   0.966       .  S
O19         Zr39   2.344   1_544  S
O19       Zr1833   2.341       .  S
O19       Zr1861   2.344   1_545  S
O20        Zr948   2.431       .  S
O20          C43   1.291   1_655  A
O21        Zr949   2.437   1_655  S
O21          C44   1.293       .  A
O22        Zr494   2.437   1_565  S
O22          C45   1.292       .  A
O23        Zr495   2.444       .  S
O23          C46   1.294       .  A
O24         Zr39   2.440   1_554  S
O24          C47   1.294       .  A
O25         Zr38   2.429   1_544  S
O25          C48   1.291       .  A
O26         Zr40   2.436   1_554  S
O26          C49   1.292   1_554  A
O27       Zr1864   2.440   1_554  S
O27          C50   1.293       .  A
O28        Zr950   2.438       .  S
O28          C49   1.293       .  A
O29        Zr951   2.435       .  S
O29          C50   1.292   1_556  A
O30         Zr36   2.441   1_465  S
O30          C45   1.293       .  A
O31         Zr37   2.446   1_545  S
O31          C48   1.295       .  A
O32       Zr1861   2.438       .  S
O32          C47   1.292       .  A
O33       Zr1860   2.433   1_565  S
O33          C46   1.291       .  A
O34        Zr496   2.429       .  S
O34          C43   1.291       .  A
O35         Zr40   2.434   1_654  S
O35          C44   1.291       .  A
Zr36        O932   2.431   1_545  S
Zr36       O1857   2.433   1_545  S
Zr36       O1834   2.336       .  S
Zr36        O954   2.338   1_645  S
Zr36       O2790   2.342   1_545  S
Zr37        O933   2.437   1_455  S
Zr37       O1856   2.438   1_455  S
Zr37       O1843   2.344   1_465  S
Zr37       O2777   2.338   1_455  S
Zr37        O964   2.340       .  S
Zr38        O478   2.436       .  S
Zr38        O940   2.439       .  S
Zr38        O473   2.339   1_565  S
Zr38       O1410   2.332       .  S
Zr38        O964   2.341   1_556  S
Zr39        O479   2.444       .  S
Zr39        O941   2.435       .  S
Zr39        O466   2.336   1_565  S
Zr39        O953   2.338   1_556  S
Zr39       O1422   2.337       .  S
Zr40       O1851   2.440   1_456  S
Zr40        O490   2.428       .  S
Zr40         O52   2.338   1_556  S
Zr40       O1865   2.333   1_456  S
Zr40        O498   2.338       .  S
Zr40       O2334   2.341   1_455  S
O41       Zr2773   2.338       .  S
O41        Zr951   2.338   1_554  S
O41       Zr1864   2.333   1_554  S
O42        Zr948   2.338   1_455  S
O42       Zr1406   2.332       .  S
O42        Zr496   2.338       .  S
C43         C431   1.469       .  S
C44         C441   1.486       .  S
C45         C391   1.490       .  S
C46         C378   1.489       .  S
C47         C411   1.489       .  S
C48         C398   1.486       .  S
C49         C358   1.485       .  S
C50         C338   1.485       .  S
H51          O52   0.966       .  S
O52        Zr949   2.340       .  S
O52        Zr950   2.341   1_554  S
H53          O54   0.966       .  S
O54       Zr2772   2.342       .  S
O54       Zr1407   2.337       .  S
O54       Zr2320   2.342       .  S
O55         Zr91   2.437       .  S
O55          C66   1.293       .  A
O56         Zr90   2.431   1_655  S
O56          C67   1.291       .  A
O57         Zr63   2.445   1_455  S
O57          C68   1.294       .  A
O58       Zr1887   2.441       .  S
O58          C69   1.293       .  A
O59         Zr93   2.445       .  S
O59          C69   1.294       .  A
O60         Zr92   2.425       .  S
O60          C68   1.290       .  A
O61         Zr63   2.441       .  S
O61          C67   1.294       .  A
O62         Zr63   2.434   1_455  S
O62          C66   1.292       .  A
Zr63       O1882   2.441       .  S
Zr63         O65   2.339   1_655  S
Zr63         O71   2.339   1_655  S
Zr63       O1888   2.335       .  S
Zr63       O1897   2.343       .  S
O64         Zr93   2.336       .  S
O64       Zr1887   2.335       .  S
O64       Zr1914   2.335       .  S
O65         Zr91   2.339       .  S
O65         Zr92   2.334       .  S
C66         C451   1.487       .  S
C67         C421   1.482       .  S
C68         C278   1.487       .  S
C69         C261   1.492       .  S
H70          O71   0.966       .  S
O71         Zr90   2.340       .  S
O71         Zr92   2.339       .  S
H72          O73   0.966       .  S
O73         Zr93   2.338       .  S
O73       Zr1887   2.343       .  S
O73       Zr1915   2.344       .  S
O74         Zr90   2.431       .  S
O74          C97   1.291       .  A
O75         Zr91   2.438   1_655  S
O75          C98   1.293       .  A
O76         Zr92   2.432       .  S
O76          C99   1.292       .  A
O77         Zr93   2.429       .  S
O77         C100   1.290       .  A
O78         Zr93   2.437       .  S
O78         C101   1.292       .  A
O79         Zr92   2.439       .  S
O79         C102   1.292       .  A
O80         Zr94   2.442       .  S
O80         C103   1.294       .  A
O81       Zr1918   2.432       .  S
O81         C104   1.291       .  A
O82         Zr92   2.422       .  S
O82         C103   1.289       .  A
O83         Zr93   2.437       .  S
O83         C104   1.293       .  A
O84         Zr90   2.432       .  S
O84          C99   1.291       .  A
O85         Zr91   2.448       .  S
O85         C102   1.295       .  A
O86       Zr1915   2.446       .  S
O86         C101   1.295       .  A
O87       Zr1914   2.442       .  S
O87         C100   1.294       .  A
O88         Zr94   2.432       .  S
O88          C97   1.291       .  A
O89         Zr94   2.431   1_655  S
O89          C98   1.291       .  A
Zr90       O1911   2.442   1_455  S
Zr90         O96   2.337       .  S
Zr90       O1888   2.335   1_455  S
Zr90       O1932   2.338   1_455  S
Zr91       O1910   2.446   1_455  S
Zr91        O106   2.342       .  S
Zr91       O1897   2.344   1_455  S
Zr91       O1919   2.338   1_455  S
Zr92         O96   2.336       .  S
Zr92        O106   2.338       .  S
Zr93         O95   2.337       .  S
Zr93        O108   2.342       .  S
Zr94       O1905   2.432   1_455  S
Zr94         O96   2.334       .  S
Zr94        O106   2.339       .  S
Zr94       O1919   2.340   1_455  S
Zr94       O1932   2.340   1_455  S
O95       Zr1915   2.338       .  S
O95       Zr1918   2.340       .  S
C97         C428   1.469       .  S
C98         C438   1.486       .  S
C99         C318   1.484       .  S
C100        C328   1.486       .  S
C101        C298   1.491       .  S
C102        C308   1.493       .  S
C103        C288   1.484       .  S
C104        C268   1.486       .  S
H105        O106   0.966       .  S
H107        O108   0.966       .  S
O108      Zr1914   2.338       .  S
O108      Zr1918   2.340       .  S
O109       Zr145   2.443       .  S
O109        C120   1.294       .  A
O110       Zr144   2.433       .  S
O110        C121   1.291       .  A
O111       Zr117   2.437       .  S
O111        C122   1.292       .  A
O112      Zr1029   2.428   1_545  S
O112        C123   1.290       .  A
O113       Zr147   2.441       .  S
O113        C123   1.294       .  A
O114       Zr146   2.440       .  S
O114        C122   1.292       .  A
O115       Zr117   2.438       .  S
O115        C121   1.293       .  A
O116       Zr117   2.433       .  S
O116        C120   1.291       .  A
Zr117      O1024   2.428       .  S
Zr117       O119   2.336       .  S
Zr117       O125   2.337       .  S
Zr117      O1030   2.337       .  S
Zr117      O1039   2.346       .  S
O118       Zr147   2.339       .  S
O118      Zr1029   2.337   1_545  S
O118      Zr1056   2.332   1_545  S
O119       Zr145   2.339       .  S
O119       Zr146   2.336       .  S
C120       C1320   1.489       .  S
C121       C1313   1.486       .  S
C122        C231   1.471       .  S
C123        C218   1.486       .  S
H124        O125   0.966       .  S
O125       Zr144   2.340       .  S
O125       Zr146   2.342       .  S
H126        O127   0.966       .  S
O127       Zr147   2.345       .  S
O127      Zr1029   2.346   1_545  S
O127      Zr1057   2.340       .  S
O128       Zr144   2.430       .  S
O128        C151   1.291       .  A
O129       Zr145   2.434       .  S
O129        C152   1.292       .  A
O130       Zr146   2.435       .  S
O130        C153   1.292       .  A
O131       Zr147   2.437       .  S
O131        C154   1.293       .  A
O132       Zr147   2.440       .  S
O132        C155   1.293       .  A
O133       Zr146   2.434       .  S
O133        C156   1.291       .  A
O134       Zr148   2.435       .  S
O134        C157   1.292       .  A
O135      Zr1060   2.437   1_545  S
O135        C158   1.292       .  A
O136       Zr146   2.438       .  S
O136        C157   1.293       .  A
O137       Zr147   2.444       .  S
O137        C158   1.293       .  A
O138       Zr144   2.432       .  S
O138        C153   1.291       .  A
O139       Zr145   2.434       .  S
O139        C156   1.292       .  A
O140      Zr1057   2.443       .  S
O140        C155   1.294       .  A
O141      Zr1056   2.438   1_545  S
O141        C154   1.292       .  A
O142       Zr148   2.444       .  S
O142        C151   1.294       .  A
O143       Zr148   2.440       .  S
O143        C152   1.293       .  A
Zr144      O1053   2.438       .  S
Zr144       O150   2.335       .  S
Zr144      O1030   2.332       .  S
Zr144      O1074   2.338       .  S
Zr145      O1052   2.443       .  S
Zr145       O160   2.343       .  S
Zr145      O1039   2.340       .  S
Zr145      O1061   2.339       .  S
Zr146       O150   2.337       .  S
Zr146       O160   2.339       .  S
Zr147       O149   2.337       .  S
Zr147       O162   2.339       .  S
Zr148      O1047   2.437       .  S
Zr148       O150   2.334       .  S
Zr148       O160   2.341       .  S
Zr148      O1061   2.339       .  S
Zr148      O1074   2.339       .  S
O149      Zr1057   2.339       .  S
O149      Zr1060   2.339   1_545  S
C151       C1300   1.488       .  S
C152       C1293   1.488       .  S
C153        C291   1.485       .  S
C154        C281   1.488       .  S
C155        C258   1.491       .  S
C156        C271   1.486       .  S
C157        C238   1.485       .  S
C158        C248   1.472       .  S
H159        O160   0.966       .  S
H161        O162   0.966       .  S
O162      Zr1056   2.338   1_545  S
O162      Zr1060   2.339   1_545  S
O163       Zr199   2.451       .  S
O163        C174   1.296       .  A
O164       Zr198   2.431       .  S
O164        C175   1.291       .  A
O165       Zr627   2.438   1_554  S
O165        C176   1.292       .  A
O166       Zr171   2.434       .  S
O166        C177   1.292       .  A
O167       Zr201   2.430       .  S
O167        C177   1.291       .  A
O168       Zr200   2.446       .  S
O168        C176   1.295       .  A
O169       Zr171   2.439       .  S
O169        C175   1.293       .  A
O170       Zr171   2.429       .  S
O170        C174   1.290       .  A
Zr171       O621   2.439       .  S
Zr171       O172   2.335       .  S
Zr171       O181   2.343       .  S
Zr171       O629   2.339       .  S
Zr171       O635   2.337       .  S
O172       Zr198   2.336       .  S
O172       Zr201   2.340       .  S
O173       Zr200   2.340       .  S
O173       Zr627   2.338   1_554  S
O173       Zr655   2.340   1_554  S
C174        C824   1.489       .  S
C175        C817   1.484       .  S
C176        C311   1.492       .  S
C177        C321   1.484       .  S
H178        O179   0.966       .  S
O179       Zr200   2.340       .  S
O179       Zr627   2.337   1_554  S
O179       Zr654   2.342   1_554  S
H180        O181   0.966       .  S
O181       Zr199   2.340       .  S
O181       Zr201   2.338       .  S
O182       Zr198   2.439       .  S
O182        C205   1.292       .  A
O183       Zr199   2.442       .  S
O183        C206   1.294       .  A
O184       Zr200   2.439       .  S
O184        C207   1.292       .  A
O185       Zr201   2.430       .  S
O185        C208   1.291       .  A
O186       Zr201   2.441       .  S
O186        C209   1.292       .  A
O187       Zr200   2.433       .  S
O187        C210   1.292       .  A
O188       Zr658   2.433   1_554  S
O188        C211   1.291       .  A
O189       Zr202   2.427       .  S
O189        C212   1.290       .  A
O190       Zr200   2.446       .  S
O190        C211   1.295       .  A
O191       Zr201   2.439       .  S
O191        C212   1.293       .  A
O192       Zr654   2.441   1_554  S
O192        C207   1.293       .  A
O193       Zr655   2.435   1_554  S
O193        C210   1.293       .  A
O194       Zr199   2.441       .  S
O194        C209   1.292       .  A
O195       Zr198   2.448       .  S
O195        C208   1.295       .  A
O196       Zr202   2.438       .  S
O196        C205   1.293       .  A
O197       Zr202   2.432       .  S
O197        C206   1.291       .  A
Zr198       O648   2.440       .  S
Zr198       O216   2.340       .  S
Zr198       O635   2.342       .  S
Zr198       O660   2.341       .  S
Zr199       O649   2.437       .  S
Zr199       O203   2.338       .  S
Zr199       O629   2.340       .  S
Zr199       O670   2.345       .  S
Zr200       O204   2.339       .  S
Zr200       O214   2.339       .  S
Zr201       O203   2.334       .  S
Zr201       O216   2.341       .  S
Zr202       O644   2.434       .  S
Zr202       O203   2.339       .  S
Zr202       O216   2.339       .  S
Zr202       O660   2.336       .  S
Zr202       O670   2.339       .  S
O204       Zr654   2.341   1_554  S
O204       Zr658   2.335   1_554  S
C205        C797   1.486       .  S
C206        C804   1.487       .  S
C207        C228   1.471       .  S
C208        C241   1.486       .  S
C209        C251   1.473       .  S
C210        C221   1.486       .  S
C211        C301   1.491       .  S
C212        C331   1.486       .  S
H213        O214   0.966       .  S
O214       Zr655   2.345   1_554  S
O214       Zr658   2.338   1_554  S
H215        O216   0.966       .  S
C217        C218   1.406       .  A
C217        C222   1.396       .  A
C217        H224   1.083       .  S
C218        C219   1.411       .  A
C219        C220   1.396       .  A
C219        F226   1.358       .  S
C220        C221   1.406       .  A
C220        H225   1.083       .  S
C221        C222   1.411       .  A
C222        F223   1.357       .  S
C227        C228   1.404       .  A
C227        C232   1.399       .  A
C227        H234   1.084       .  S
C228        C229   1.405       .  A
C229        C230   1.398       .  A
C229        F236   1.358       .  S
C230        C231   1.403       .  A
C230        H235   1.084       .  S
C231        C232   1.405       .  A
C232        F233   1.358       .  S
C237        C238   1.406       .  A
C237        C242   1.397       .  A
C237        H244   1.083       .  S
C238        C239   1.410       .  A
C239        C240   1.398       .  A
C239        F246   1.358       .  S
C240        C241   1.406       .  A
C240        H245   1.083       .  S
C241        C242   1.411       .  A
C242        F243   1.358       .  S
C247        C248   1.404       .  A
C247        C252   1.399       .  A
C247        H254   1.084       .  S
C248        C249   1.405       .  A
C249        C250   1.399       .  A
C249        F256   1.358       .  S
C250        C251   1.404       .  A
C250        H255   1.084       .  S
C251        C252   1.405       .  A
C252        F253   1.358       .  S
C257        C258   1.407       .  A
C257        C262   1.400       .  A
C257        H264   1.083       .  S
C258        C259   1.411       .  A
C259        C260   1.400       .  A
C259        F266   1.357       .  S
C260        C261   1.407       .  A
C260        H265   1.083       .  S
C261        C262   1.412       .  A
C262        F263   1.358       .  S
C267        C268   1.406       .  A
C267        C272   1.395       .  A
C267        H274   1.083       .  S
C268        C269   1.411       .  A
C269        C270   1.397       .  A
C269        F276   1.358       .  S
C270        C271   1.407       .  A
C270        H275   1.083       .  S
C271        C272   1.410       .  A
C272        F273   1.357       .  S
C277        C278   1.406       .  A
C277        C282   1.397       .  A
C277        H284   1.083       .  S
C278        C279   1.412       .  A
C279        C280   1.397       .  A
C279        F286   1.358       .  S
C280        C281   1.407       .  A
C280        H285   1.083       .  S
C281        C282   1.411       .  A
C282        F283   1.357       .  S
C287        C288   1.405       .  A
C287        C292   1.395       .  A
C287        H294   1.083       .  S
C288        C289   1.412       .  A
C289        C290   1.397       .  A
C289        F296   1.358       .  S
C290        C291   1.406       .  A
C290        H295   1.083       .  S
C291        C292   1.411       .  A
C292        F293   1.357       .  S
C297        C298   1.407       .  A
C297        C302   1.399       .  A
C297        H304   1.083       .  S
C298        C299   1.412       .  A
C299        C300   1.398       .  A
C299        F306   1.357       .  S
C300        C301   1.406       .  A
C300        H305   1.083       .  S
C301        C302   1.412       .  A
C302        F303   1.358       .  S
C307        C308   1.407       .  A
C307        C312   1.399       .  A
C307        H314   1.083       .  S
C308        C309   1.412       .  A
C309        C310   1.400       .  A
C309        F316   1.357       .  S
C310        C311   1.407       .  A
C310        H315   1.083       .  S
C311        C312   1.412       .  A
C312        F313   1.358       .  S
C317        C318   1.406       .  A
C317        C322   1.395       .  A
C317        H324   1.083       .  S
C318        C319   1.410       .  A
C319        C320   1.395       .  A
C319        F326   1.358       .  S
C320        C321   1.406       .  A
C320        H325   1.083       .  S
C321        C322   1.410       .  A
C322        F323   1.358       .  S
C327        C328   1.406       .  A
C327        C332   1.396       .  A
C327        H334   1.083       .  S
C328        C329   1.412       .  A
C329        C330   1.396       .  A
C329        F336   1.358       .  S
C330        C331   1.406       .  A
C330        H335   1.083       .  S
C331        C332   1.411       .  A
C332        F333   1.358       .  S
C337        C342   1.397       .  A
C337        C794   1.406       .  A
C337        H344   1.083       .  S
C338        C339   1.409       .  A
C338        C793   1.406   1_554  A
C339        C340   1.398       .  A
C339        F346   1.358       .  S
C340        C341   1.407       .  A
C340        H345   1.083       .  S
C341        C661   1.486   1_554  S
C341        C798   1.410   1_554  A
C342        C797   1.410       .  A
C342        F343   1.358       .  S
C347        C352   1.397       .  A
C347        C804   1.406       .  A
C347        H354   1.083       .  S
C348        C662   1.487       .  S
C348        C349   1.411   1_556  A
C348        C803   1.406       .  A
C349        C350   1.397       .  A
C349        F356   1.358       .  S
C350        C351   1.406   1_554  A
C350        H355   1.083       .  S
C351        C808   1.411       .  A
C352        C807   1.411       .  A
C352        F353   1.358       .  S
C357        C358   1.406   1_554  A
C357        C362   1.398       .  A
C357        H364   1.083       .  S
C358        C815   1.410       .  A
C359        C360   1.396       .  A
C359        C814   1.410       .  A
C359        F366   1.357       .  S
C360        C817   1.405       .  A
C360        H365   1.083       .  S
C361        C631   1.484   1_554  S
C361        C362   1.410       .  A
C361        C816   1.405   1_554  A
C362        F363   1.358       .  S
C367        C368   1.405       .  A
C367        C372   1.397       .  A
C367        H374   1.083       .  S
C368        C630   1.489       .  S
C368        C825   1.413       .  A
C369        C370   1.398       .  A
C369        C824   1.413       .  A
C369        F376   1.358       .  S
C370        C827   1.406       .  A
C370        H375   1.083       .  S
C371        C372   1.412       .  A
C371        C826   1.406       .  A
C372        F373   1.357       .  S
C377        C378   1.407       .  A
C377        C382   1.397       .  A
C377        H384   1.083       .  S
C378       C1291   1.411       .  A
C379        C380   1.397       .  A
C379       C1290   1.411       .  A
C379        F386   1.358       .  S
C380       C1293   1.407       .  A
C380        H385   1.083       .  S
C381       C1064   1.488       .  S
C381        C382   1.410       .  A
C381       C1292   1.407       .  A
C382        F383   1.357       .  S
C387        C388   1.406       .  A
C387        C392   1.397       .  A
C387        H394   1.083       .  S
C388       C1063   1.489       .  S
C388       C1301   1.412       .  A
C389        C390   1.399       .  A
C389       C1300   1.412       .  A
C389        F396   1.358       .  S
C390       C1303   1.407       .  A
C390        H395   1.083       .  S
C391        C392   1.411       .  A
C391       C1302   1.407       .  A
C392        F393   1.357       .  S
C397        C402   1.397       .  A
C397       C1310   1.405       .  A
C397        H404   1.083       .  S
C398        C399   1.412   1_545  A
C398       C1309   1.405       .  A
C399        C400   1.398       .  A
C399        F406   1.358       .  S
C400        C401   1.406   1_565  A
C400        H405   1.083       .  S
C401       C1033   1.486       .  S
C401       C1314   1.410       .  A
C402       C1313   1.410       .  A
C402        F403   1.358       .  S
C407        C412   1.398       .  A
C407       C1320   1.406       .  A
C407        H414   1.083       .  S
C408       C1032   1.489       .  S
C408        C409   1.411       .  A
C408       C1319   1.406       .  A
C409        C410   1.398       .  A
C409        F416   1.358       .  S
C410        C411   1.407       .  A
C410        H415   1.083       .  S
C411       C1324   1.411       .  A
C412       C1323   1.411       .  A
C412        F413   1.357       .  S
C417        C422   1.398       .  A
C417       C2242   1.406       .  A
C417        H424   1.083       .  S
C418        C419   1.408       .  A
C418       C2241   1.406   1_655  A
C419        C420   1.397       .  A
C419        F426   1.358       .  S
C420        C421   1.405       .  A
C420        H425   1.083       .  S
C421       C2246   1.410   1_655  A
C422       C2245   1.410       .  A
C422        F423   1.358       .  S
C427        C432   1.396       .  A
C427       C2252   1.403       .  A
C427        H434   1.084       .  S
C428        C429   1.405   1_455  A
C428       C2251   1.403       .  A
C429        C430   1.394       .  A
C429        F436   1.358       .  S
C430        C431   1.403   1_655  A
C430        H435   1.084       .  S
C431       C2256   1.406       .  A
C432       C2255   1.406       .  A
C432        F433   1.357       .  S
C437        C438   1.406       .  A
C437        C442   1.396       .  A
C437        H444   1.083       .  S
C438       C2263   1.411       .  A
C439        C440   1.396       .  A
C439       C2262   1.411       .  A
C439        F446   1.358       .  S
C440       C2265   1.407       .  A
C440        H445   1.083       .  S
C441        C442   1.411       .  A
C441       C2264   1.407       .  A
C442        F443   1.358       .  S
C447        C448   1.406   1_655  A
C447        C452   1.397       .  A
C447        H454   1.083       .  S
C448       C2273   1.411       .  A
C449        C450   1.396       .  A
C449       C2272   1.411       .  A
C449        F456   1.358       .  S
C450       C2275   1.406       .  A
C450        H455   1.083       .  S
C451        C452   1.411   1_455  A
C451       C2274   1.406       .  A
C452        F453   1.358       .  S
O457       Zr493   2.436   1_545  S
O457        C468   1.293       .  A
O458       Zr492   2.442   1_545  S
O458        C469   1.293       .  A
O459       Zr465   2.442   1_455  S
O459        C470   1.294       .  A
O460      Zr2289   2.439       .  S
O460        C471   1.293       .  A
O461       Zr495   2.434   1_545  S
O461        C471   1.292       .  A
O462       Zr494   2.431       .  S
O462        C470   1.291       .  A
O463        C469   1.292       .  A
O464       Zr465   2.435       .  S
O464        C468   1.292   1_655  A
Zr465      O2284   2.439       .  S
Zr465      O1834   2.338       .  S
Zr465       O467   2.336   1_655  S
Zr465      O2299   2.340       .  S
O466      Zr1833   2.339   1_556  S
O466      Zr2316   2.336   1_545  S
O467       Zr493   2.336   1_545  S
O467       Zr494   2.339       .  S
C468        C904   1.487       .  S
C469        C874   1.481       .  S
C470        C827   1.488       .  S
C471        C807   1.487       .  S
H472        O473   0.966       .  S
O473       Zr492   2.337   1_445  S
H474        O475   0.966       .  S
O475      Zr2289   2.340       .  S
O475      Zr2317   2.343   1_545  S
O475       Zr495   2.344   1_545  S
O476      Zr1404   2.429   1_455  S
O476        C499   1.291       .  A
O477      Zr1405   2.437   1_655  S
O477        C500   1.293       .  A
O478        C501   1.292       .  A
O479        C502   1.294       .  A
O480       Zr495   2.439       .  S
O480        C503   1.294       .  A
O481       Zr494   2.429       .  S
O481        C504   1.291       .  A
O482       Zr496   2.436       .  S
O482        C505   1.292       .  A
O483      Zr2320   2.439       .  S
O483        C506   1.293       .  A
O484      Zr1406   2.438       .  S
O484        C505   1.293       .  A
O485      Zr1407   2.435       .  S
O485        C506   1.292       .  A
O486       Zr492   2.440   1_455  S
O486        C501   1.293       .  A
O487       Zr493   2.445   1_545  S
O487        C504   1.295       .  A
O488      Zr2317   2.437       .  S
O488        C503   1.292       .  A
O489      Zr2316   2.432       .  S
O489        C502   1.291       .  A
O490        C499   1.291       .  A
O491       Zr496   2.435   1_655  S
O491        C500   1.292       .  A
Zr492      O1388   2.429   1_655  S
Zr492      O2313   2.432       .  S
Zr492      O2290   2.336   1_565  S
Zr492      O1410   2.338   1_655  S
Zr492      O3246   2.342       .  S
Zr493      O1389   2.437   1_455  S
Zr493      O2312   2.437   1_455  S
Zr493      O2299   2.343   1_465  S
Zr493      O3233   2.338   1_455  S
Zr493      O1420   2.340       .  S
Zr494      O1396   2.438   1_545  S
Zr494       O954   2.332   1_545  S
Zr494      O1420   2.342   1_545  S
Zr495      O1397   2.435       .  S
Zr495      O1409   2.338       .  S
Zr495       O966   2.337       .  S
Zr496      O2307   2.439   1_455  S
Zr496      O2321   2.334   1_455  S
Zr496      O1878   2.342   1_455  S
Zr496       O508   2.338       .  S
O497      Zr3229   2.338       .  S
O497      Zr1407   2.338       .  S
O497      Zr2320   2.334       .  S
O498      Zr1404   2.338   1_455  S
O498       Zr950   2.332       .  S
C499        C887   1.467       .  S
C500        C897   1.487       .  S
C501        C847   1.489       .  S
C502        C834   1.489       .  S
C503        C867   1.488       .  S
C504        C854   1.487       .  S
C505        C814   1.484       .  S
C506        C794   1.485       .  S
H507        O508   0.966       .  S
O508      Zr1405   2.340       .  S
O508      Zr1406   2.342       .  S
H509        O510   0.966       .  S
O510      Zr3228   2.342       .  S
O510       Zr951   2.337       .  S
O510      Zr1864   2.341       .  S
O511       Zr547   2.437       .  S
O511        C522   1.293       .  A
O512       Zr546   2.433       .  S
O512        C523   1.291   1_455  A
O513       Zr519   2.446   1_455  S
O513        C524   1.295       .  A
O514      Zr2343   2.442       .  S
O514        C525   1.293       .  A
O515       Zr549   2.445       .  S
O515        C525   1.294       .  A
O516       Zr548   2.425       .  S
O516        C524   1.290       .  A
O517       Zr519   2.440       .  S
O517        C523   1.293       .  A
O518       Zr519   2.433       .  S
O518        C522   1.292   1_655  A
Zr519      O2338   2.442       .  S
Zr519      O2344   2.335       .  S
Zr519       O521   2.339   1_655  S
Zr519      O2353   2.343       .  S
Zr519       O527   2.338   1_655  S
O520      Zr2343   2.335       .  S
O520      Zr2370   2.335       .  S
O520       Zr549   2.337       .  S
O521       Zr547   2.339       .  S
O521       Zr548   2.334       .  S
C522        C907   1.487       .  S
C523        C877   1.481       .  S
C524        C734   1.488       .  S
C525        C717   1.492       .  S
H526        O527   0.966       .  S
O527       Zr546   2.339       .  S
O527       Zr548   2.339       .  S
H528        O529   0.966       .  S
O529      Zr2343   2.343       .  S
O529      Zr2371   2.343       .  S
O529       Zr549   2.337       .  S
O530       Zr546   2.431       .  S
O530        C553   1.291       .  A
O531       Zr547   2.439   1_655  S
O531        C554   1.293       .  A
O532       Zr548   2.432       .  S
O532        C555   1.292       .  A
O533       Zr549   2.427       .  S
O533        C556   1.290       .  A
O534       Zr549   2.436       .  S
O534        C557   1.292       .  A
O535       Zr548   2.439       .  S
O535        C558   1.292       .  A
O536       Zr550   2.441       .  S
O536        C559   1.294       .  A
O537      Zr2374   2.431       .  S
O537        C560   1.291       .  A
O538       Zr548   2.422       .  S
O538        C559   1.289       .  A
O539       Zr549   2.437       .  S
O539        C560   1.293       .  A
O540       Zr546   2.432       .  S
O540        C555   1.291       .  A
O541       Zr547   2.447       .  S
O541        C558   1.295       .  A
O542      Zr2371   2.447       .  S
O542        C557   1.295       .  A
O543      Zr2370   2.442       .  S
O543        C556   1.294       .  A
O544       Zr550   2.429       .  S
O544        C553   1.291       .  A
O545       Zr550   2.430       .  S
O545        C554   1.291   1_455  A
Zr546      O2367   2.442   1_455  S
Zr546      O2344   2.335   1_455  S
Zr546       O552   2.337       .  S
Zr546      O2388   2.338   1_455  S
Zr547      O2366   2.447   1_455  S
Zr547      O2353   2.343   1_455  S
Zr547      O2375   2.338   1_455  S
Zr547       O562   2.342       .  S
Zr548       O552   2.336       .  S
Zr548       O562   2.338       .  S
Zr549       O551   2.337       .  S
Zr549       O564   2.342       .  S
Zr550      O2361   2.431   1_455  S
Zr550      O2375   2.339   1_455  S
Zr550       O552   2.334       .  S
Zr550      O2388   2.340   1_455  S
Zr550       O562   2.338       .  S
O551      Zr2371   2.338       .  S
O551      Zr2374   2.339       .  S
C553        C884   1.467       .  S
C554        C894   1.486       .  S
C555        C774   1.484       .  S
C556        C784   1.485       .  S
C557        C754   1.492       .  S
C558        C764   1.493       .  S
C559        C744   1.485       .  S
C560        C724   1.485       .  S
H561        O562   0.966       .  S
H563        O564   0.966       .  S
O564      Zr2370   2.338       .  S
O564      Zr2374   2.340       .  S
O565       Zr601   2.441       .  S
O565        C576   1.294       .  A
O566       Zr600   2.432       .  S
O566        C577   1.291       .  A
O567       Zr573   2.438       .  S
O567        C578   1.292       .  A
O568      Zr1485   2.427   1_545  S
O568        C579   1.290       .  A
O569       Zr603   2.442       .  S
O569        C579   1.294       .  A
O570       Zr602   2.438       .  S
O570        C578   1.292       .  A
O571       Zr573   2.438       .  S
O571        C577   1.293       .  A
O572       Zr573   2.433       .  S
O572        C576   1.291       .  A
Zr573      O1480   2.427       .  S
Zr573      O1486   2.337       .  S
Zr573       O575   2.336       .  S
Zr573      O1495   2.346       .  S
Zr573       O581   2.337       .  S
O574      Zr1485   2.337   1_545  S
O574      Zr1512   2.331   1_545  S
O574       Zr603   2.338       .  S
O575       Zr601   2.339       .  S
O575       Zr602   2.337       .  S
C576       C1776   1.488       .  S
C577       C1769   1.486       .  S
C578        C687   1.470       .  S
C579        C674   1.486       .  S
H580        O581   0.966       .  S
O581       Zr600   2.340       .  S
O581       Zr602   2.343       .  S
H582        O583   0.966       .  S
O583      Zr1485   2.346   1_545  S
O583      Zr1513   2.340       .  S
O583       Zr603   2.345       .  S
O584       Zr600   2.429       .  S
O584        C607   1.290       .  A
O585       Zr601   2.433       .  S
O585        C608   1.292       .  A
O586       Zr602   2.436       .  S
O586        C609   1.293       .  A
O587       Zr603   2.437       .  S
O587        C610   1.293       .  A
O588       Zr603   2.440       .  S
O588        C611   1.293       .  A
O589       Zr602   2.434       .  S
O589        C612   1.292       .  A
O590       Zr604   2.435       .  S
O590        C613   1.292       .  A
O591      Zr1516   2.435   1_545  S
O591        C614   1.291       .  A
O592       Zr602   2.437       .  S
O592        C613   1.293       .  A
O593       Zr603   2.444       .  S
O593        C614   1.293       .  A
O594       Zr600   2.431       .  S
O594        C609   1.291       .  A
O595       Zr601   2.433       .  S
O595        C612   1.292       .  A
O596      Zr1513   2.443       .  S
O596        C611   1.294       .  A
O597      Zr1512   2.439   1_545  S
O597        C610   1.292       .  A
O598       Zr604   2.444       .  S
O598        C607   1.294       .  A
O599       Zr604   2.440       .  S
O599        C608   1.293       .  A
Zr600      O1509   2.439       .  S
Zr600      O1486   2.331       .  S
Zr600       O606   2.335       .  S
Zr600      O1530   2.337       .  S
Zr601      O1508   2.444       .  S
Zr601      O1495   2.339       .  S
Zr601      O1517   2.338       .  S
Zr601       O616   2.343       .  S
Zr602       O606   2.336       .  S
Zr602       O616   2.339       .  S
Zr603       O605   2.337       .  S
Zr603       O618   2.339       .  S
Zr604      O1503   2.435       .  S
Zr604      O1517   2.339       .  S
Zr604       O606   2.334       .  S
Zr604      O1530   2.339       .  S
Zr604       O616   2.340       .  S
O605      Zr1513   2.338       .  S
O605      Zr1516   2.339   1_545  S
C607       C1756   1.488       .  S
C608       C1749   1.488       .  S
C609        C747   1.485       .  S
C610        C737   1.489       .  S
C611        C714   1.491       .  S
C612        C727   1.485       .  S
C613        C694   1.485       .  S
C614        C704   1.472       .  S
H615        O616   0.966       .  S
H617        O618   0.966       .  S
O618      Zr1512   2.337   1_545  S
O618      Zr1516   2.339   1_545  S
O619       Zr655   2.451       .  S
O619        C630   1.296       .  A
O620       Zr654   2.432       .  S
O620        C631   1.291       .  A
O621        C632   1.292       .  A
O622       Zr627   2.432       .  S
O622        C633   1.292       .  A
O623       Zr657   2.430       .  S
O623        C633   1.291       .  A
O624       Zr656   2.446       .  S
O624        C632   1.294       .  A
O625       Zr627   2.438       .  S
O625        C631   1.293       .  A
O626       Zr627   2.429       .  S
O626        C630   1.290       .  A
Zr627       O628   2.335       .  S
Zr627       O637   2.343       .  S
O628       Zr654   2.336       .  S
O628       Zr657   2.340       .  S
O629       Zr656   2.340       .  S
C632        C767   1.492       .  S
C633        C777   1.484       .  S
H634        O635   0.966       .  S
O635       Zr656   2.341       .  S
H636        O637   0.966       .  S
O637       Zr655   2.339       .  S
O637       Zr657   2.337       .  S
O638       Zr654   2.438       .  S
O638        C661   1.292       .  A
O639       Zr655   2.442       .  S
O639        C662   1.294       .  A
O640       Zr656   2.438       .  S
O640        C663   1.292       .  A
O641       Zr657   2.429       .  S
O641        C664   1.291       .  A
O642       Zr657   2.441       .  S
O642        C665   1.292       .  A
O643       Zr656   2.433       .  S
O643        C666   1.291       .  A
O644        C667   1.291       .  A
O645       Zr658   2.425       .  S
O645        C668   1.290       .  A
O646       Zr656   2.447       .  S
O646        C667   1.295       .  A
O647       Zr657   2.437       .  S
O647        C668   1.293       .  A
O648        C663   1.292       .  A
O649        C666   1.293       .  A
O650       Zr655   2.439       .  S
O650        C665   1.292       .  A
O651       Zr654   2.448       .  S
O651        C664   1.295       .  A
O652       Zr658   2.439       .  S
O652        C661   1.293       .  A
O653       Zr658   2.433       .  S
O653        C662   1.291       .  A
Zr654       O672   2.340       .  S
Zr655       O659   2.338       .  S
Zr656       O660   2.339       .  S
Zr656       O670   2.339       .  S
Zr657       O659   2.334       .  S
Zr657       O672   2.341       .  S
Zr658       O659   2.339       .  S
Zr658       O672   2.339       .  S
C663        C684   1.470       .  S
C664        C697   1.486       .  S
C665        C707   1.473       .  S
C666        C677   1.486       .  S
C667        C757   1.491       .  S
C668        C787   1.484       .  S
H669        O670   0.966       .  S
H671        O672   0.966       .  S
C673        C674   1.405       .  A
C673        C678   1.396       .  A
C673        H680   1.083       .  S
C674        C675   1.411       .  A
C675        C676   1.397       .  A
C675        F682   1.358       .  S
C676        C677   1.406       .  A
C676        H681   1.083       .  S
C677        C678   1.411       .  A
C678        F679   1.357       .  S
C683        C684   1.403       .  A
C683        C688   1.398       .  A
C683        H690   1.084       .  S
C684        C685   1.405       .  A
C685        C686   1.398       .  A
C685        F692   1.358       .  S
C686        C687   1.403       .  A
C686        H691   1.084       .  S
C687        C688   1.405       .  A
C688        F689   1.358       .  S
C693        C694   1.406       .  A
C693        C698   1.397       .  A
C693        H700   1.083       .  S
C694        C695   1.410       .  A
C695        C696   1.398       .  A
C695        F702   1.358       .  S
C696        C697   1.406       .  A
C696        H701   1.083       .  S
C697        C698   1.411       .  A
C698        F699   1.358       .  S
C703        C704   1.404       .  A
C703        C708   1.399       .  A
C703        H710   1.084       .  S
C704        C705   1.405       .  A
C705        C706   1.399       .  A
C705        F712   1.358       .  S
C706        C707   1.404       .  A
C706        H711   1.084       .  S
C707        C708   1.406       .  A
C708        F709   1.358       .  S
C713        C714   1.407       .  A
C713        C718   1.400       .  A
C713        H720   1.083       .  S
C714        C715   1.411       .  A
C715        C716   1.400       .  A
C715        F722   1.358       .  S
C716        C717   1.407       .  A
C716        H721   1.083       .  S
C717        C718   1.412       .  A
C718        F719   1.358       .  S
C723        C724   1.406       .  A
C723        C728   1.395       .  A
C723        H730   1.083       .  S
C724        C725   1.411       .  A
C725        C726   1.397       .  A
C725        F732   1.358       .  S
C726        C727   1.407       .  A
C726        H731   1.083       .  S
C727        C728   1.410       .  A
C728        F729   1.357       .  S
C733        C734   1.406       .  A
C733        C738   1.397       .  A
C733        H740   1.083       .  S
C734        C735   1.412       .  A
C735        C736   1.397       .  A
C735        F742   1.358       .  S
C736        C737   1.407       .  A
C736        H741   1.083       .  S
C737        C738   1.411       .  A
C738        F739   1.357       .  S
C743        C744   1.405       .  A
C743        C748   1.395       .  A
C743        H750   1.083       .  S
C744        C745   1.412       .  A
C745        C746   1.397       .  A
C745        F752   1.358       .  S
C746        C747   1.406       .  A
C746        H751   1.083       .  S
C747        C748   1.411       .  A
C748        F749   1.357       .  S
C753        C754   1.407       .  A
C753        C758   1.399       .  A
C753        H760   1.083       .  S
C754        C755   1.412       .  A
C755        C756   1.398       .  A
C755        F762   1.357       .  S
C756        C757   1.406       .  A
C756        H761   1.083       .  S
C757        C758   1.412       .  A
C758        F759   1.358       .  S
C763        C764   1.407       .  A
C763        C768   1.399       .  A
C763        H770   1.083       .  S
C764        C765   1.412       .  A
C765        C766   1.400       .  A
C765        F772   1.357       .  S
C766        C767   1.407       .  A
C766        H771   1.083       .  S
C767        C768   1.412       .  A
C768        F769   1.358       .  S
C773        C774   1.406       .  A
C773        C778   1.395       .  A
C773        H780   1.083       .  S
C774        C775   1.410       .  A
C775        C776   1.395       .  A
C775        F782   1.358       .  S
C776        C777   1.406       .  A
C776        H781   1.083       .  S
C777        C778   1.410       .  A
C778        F779   1.358       .  S
C783        C784   1.405       .  A
C783        C788   1.395       .  A
C783        H790   1.083       .  S
C784        C785   1.412       .  A
C785        C786   1.396       .  A
C785        F792   1.358       .  S
C786        C787   1.405       .  A
C786        H791   1.083       .  S
C787        C788   1.411       .  A
C788        F789   1.358       .  S
C793        C798   1.397       .  A
C793        H800   1.083       .  S
C794        C795   1.409       .  A
C795        C796   1.398       .  A
C795        F802   1.358       .  S
C796        C797   1.407       .  A
C796        H801   1.083       .  S
C798        F799   1.358       .  S
C803        C808   1.398       .  A
C803        H810   1.083       .  S
C804        C805   1.411       .  A
C805        C806   1.397       .  A
C805        F812   1.358       .  S
C806        C807   1.406       .  A
C806        H811   1.083       .  S
C808        F809   1.358       .  S
C813        C814   1.406       .  A
C813        C818   1.398       .  A
C813        H820   1.083       .  S
C815        C816   1.396       .  A
C815        F822   1.357       .  S
C816        H821   1.083       .  S
C817        C818   1.410       .  A
C818        F819   1.358       .  S
C823        C824   1.405       .  A
C823        C828   1.397       .  A
C823        H830   1.083       .  S
C825        C826   1.398       .  A
C825        F832   1.358       .  S
C826        H831   1.083       .  S
C827        C828   1.411       .  A
C828        F829   1.357       .  S
C833        C834   1.407       .  A
C833        C838   1.397       .  A
C833        H840   1.083       .  S
C834       C1747   1.411       .  A
C835       C1746   1.411       .  A
C835        C836   1.397       .  A
C835        F842   1.358       .  S
C836       C1749   1.407       .  A
C836        H841   1.083       .  S
C837       C1520   1.488       .  S
C837       C1748   1.407       .  A
C837        C838   1.410       .  A
C838        F839   1.357       .  S
C843        C844   1.405       .  A
C843        C848   1.397       .  A
C843        H850   1.083       .  S
C844       C1519   1.488       .  S
C844       C1757   1.412   1_565  A
C845       C1756   1.412       .  A
C845        C846   1.398       .  A
C845        F852   1.358       .  S
C846       C1759   1.407       .  A
C846        H851   1.083       .  S
C847       C1758   1.407   1_565  A
C847        C848   1.411       .  A
C848        F849   1.357       .  S
C853       C1766   1.406       .  A
C853        C858   1.397       .  A
C853        H860   1.083       .  S
C854       C1765   1.406       .  A
C854        C855   1.412   1_545  A
C855        C856   1.397       .  A
C855        F862   1.358       .  S
C856        C857   1.406   1_565  A
C856        H861   1.083       .  S
C857       C1489   1.486       .  S
C857       C1770   1.410       .  A
C858       C1769   1.411       .  A
C858        F859   1.358       .  S
C863       C1776   1.406       .  A
C863        C868   1.397       .  A
C863        H870   1.083       .  S
C864       C1488   1.488       .  S
C864       C1775   1.406   1_565  A
C864        C865   1.411       .  A
C865        C866   1.397       .  A
C865        F872   1.358       .  S
C866        C867   1.407       .  A
C866        H871   1.083       .  S
C867       C1780   1.411   1_565  A
C868       C1779   1.411       .  A
C868        F869   1.358       .  S
C873       C2698   1.406       .  A
C873        C878   1.398       .  A
C873        H880   1.083       .  S
C874       C2697   1.406   1_655  A
C874        C875   1.408       .  A
C875        C876   1.397       .  A
C875        F882   1.358       .  S
C876        C877   1.405       .  A
C876        H881   1.083       .  S
C877       C2702   1.409   1_655  A
C878       C2701   1.409       .  A
C878        F879   1.358       .  S
C883       C2708   1.403       .  A
C883        C888   1.395       .  A
C883        H890   1.084       .  S
C884       C2707   1.403       .  A
C884        C885   1.405   1_455  A
C885        C886   1.394       .  A
C885        F892   1.358       .  S
C886        C887   1.403   1_655  A
C886        H891   1.084       .  S
C887       C2712   1.405       .  A
C888       C2711   1.405       .  A
C888        F889   1.357       .  S
C893        C894   1.406       .  A
C893        C898   1.396       .  A
C893        H900   1.083   1_655  S
C894       C2719   1.411       .  A
C895       C2718   1.411       .  A
C895        C896   1.397       .  A
C895        F902   1.358       .  S
C896       C2721   1.407       .  A
C896        H901   1.083       .  S
C897       C2720   1.407       .  A
C897        C898   1.411       .  A
C898        F899   1.357       .  S
C903        C904   1.407   1_655  A
C903        C908   1.397       .  A
C903        H910   1.083       .  S
C904       C2729   1.411       .  A
C905       C2728   1.411       .  A
C905        C906   1.396       .  A
C905        F912   1.358       .  S
C906       C2731   1.406       .  A
C906        H911   1.083       .  S
C907       C2730   1.406       .  A
C907        C908   1.411   1_455  A
C908        F909   1.358       .  S
O913       Zr949   2.436       .  S
O913        C924   1.293       .  A
O914       Zr948   2.442       .  S
O914        C925   1.293       .  A
O915       Zr921   2.442   1_455  S
O915        C926   1.294   1_554  A
O916      Zr2745   2.440   1_556  S
O916        C927   1.293       .  A
O917       Zr951   2.434       .  S
O917        C927   1.292       .  A
O918       Zr950   2.432       .  S
O918        C926   1.291       .  A
O919      Zr1377   2.431       .  S
O919        C925   1.292       .  A
O920       Zr921   2.435       .  S
O920        C924   1.292   1_655  A
Zr921      O2740   2.440   1_554  S
Zr921      O1375   2.431   1_554  S
Zr921      O3202   2.338   1_554  S
Zr921       O923   2.336   1_655  S
Zr921      O2755   2.341       .  S
Zr921      O1385   2.342   1_654  S
O922      Zr3201   2.338       .  S
O922      Zr2772   2.336       .  S
O922      Zr1407   2.336       .  S
O923       Zr949   2.336       .  S
O923       Zr950   2.339   1_554  S
C924       C1360   1.487       .  S
C925       C1330   1.482       .  S
C926       C1283   1.488       .  S
C927       C1263   1.487       .  S
H928        O929   0.966       .  S
O929      Zr1377   2.342   1_455  S
O929       Zr948   2.337   1_455  S
O929      Zr1406   2.339       .  S
H930        O931   0.966       .  S
O931      Zr2745   2.341       .  S
O931      Zr2773   2.344       .  S
O931       Zr951   2.344   1_554  S
O932        C955   1.291   1_655  A
O933        C956   1.293       .  A
O934      Zr1406   2.437       .  S
O934        C957   1.292       .  A
O935      Zr1407   2.444       .  S
O935        C958   1.294       .  A
O936       Zr951   2.440   1_554  S
O936        C959   1.294       .  A
O937       Zr950   2.429   1_554  S
O937        C960   1.291       .  A
O938       Zr952   2.436   1_554  S
O938        C961   1.292   1_554  A
O939      Zr2776   2.440   1_554  S
O939        C962   1.293       .  A
O940        C961   1.293       .  A
O941        C962   1.292   1_556  A
O942       Zr948   2.440   1_455  S
O942        C957   1.293       .  A
O943       Zr949   2.446       .  S
O943        C960   1.295       .  A
O944      Zr2773   2.438       .  S
O944        C959   1.292       .  A
O945      Zr2772   2.433       .  S
O945        C958   1.291       .  A
O946      Zr1408   2.429       .  S
O946        C955   1.291       .  A
O947       Zr952   2.433   1_654  S
O947        C956   1.291       .  A
Zr948      O2769   2.433       .  S
Zr948      O2746   2.336       .  S
Zr948      O1878   2.342       .  S
Zr949      O2768   2.438   1_455  S
Zr949      O2755   2.344   1_455  S
Zr949      O1865   2.338   1_455  S
Zr950      O1390   2.436       .  S
Zr950      O1385   2.339       .  S
Zr951      O1391   2.444       .  S
Zr951      O1378   2.337       .  S
Zr952      O2763   2.440   1_456  S
Zr952      O1402   2.428       .  S
Zr952      O2777   2.333   1_456  S
Zr952      O1410   2.338       .  S
Zr952      O3246   2.341   1_455  S
Zr952       O964   2.338   1_556  S
O953      Zr1861   2.338       .  S
O953      Zr2776   2.333   1_554  S
O954      Zr1408   2.338       .  S
C955       C1343   1.469       .  S
C956       C1353   1.486       .  S
C957       C1303   1.490       .  S
C958       C1290   1.489       .  S
C959       C1323   1.489       .  S
C960       C1310   1.486       .  S
C961       C1270   1.485       .  S
C962       C1250   1.485       .  S
H963        O964   0.966       .  S
H965        O966   0.966       .  S
O966      Zr1860   2.342   1_565  S
O966      Zr3232   2.342       .  S
O967      Zr1003   2.437       .  S
O967        C978   1.293       .  A
O968      Zr1002   2.431       .  S
O968        C979   1.291   1_455  A
O969       Zr975   2.445   1_455  S
O969        C980   1.294       .  A
O970      Zr2799   2.441       .  S
O970        C981   1.293       .  A
O971      Zr1005   2.446       .  S
O971        C981   1.294       .  A
O972      Zr1004   2.425       .  S
O972        C980   1.290       .  A
O973       Zr975   2.441       .  S
O973        C979   1.294       .  A
O974       Zr975   2.434   1_455  S
O974        C978   1.292       .  A
Zr975      O2794   2.441       .  S
Zr975      O2800   2.335       .  S
Zr975       O977   2.339   1_655  S
Zr975      O2809   2.343       .  S
Zr975       O983   2.339   1_655  S
O976      Zr2799   2.335       .  S
O976      Zr2826   2.335       .  S
O976      Zr1005   2.336       .  S
O977      Zr1003   2.339       .  S
O977      Zr1004   2.334       .  S
C978       C1363   1.487       .  S
C979       C1333   1.482       .  S
C980       C1190   1.488       .  S
C981       C1173   1.492       .  S
H982        O983   0.966       .  S
O983      Zr1002   2.340       .  S
O983      Zr1004   2.339       .  S
H984        O985   0.966       .  S
O985      Zr2799   2.343       .  S
O985      Zr2827   2.344       .  S
O985      Zr1005   2.338       .  S
O986      Zr1002   2.431       .  S
O986       C1009   1.291       .  A
O987      Zr1003   2.438   1_655  S
O987       C1010   1.293       .  A
O988      Zr1004   2.432       .  S
O988       C1011   1.292       .  A
O989      Zr1005   2.429       .  S
O989       C1012   1.290       .  A
O990      Zr1005   2.437       .  S
O990       C1013   1.292       .  A
O991      Zr1004   2.439       .  S
O991       C1014   1.292       .  A
O992      Zr1006   2.442       .  S
O992       C1015   1.294       .  A
O993      Zr2830   2.432       .  S
O993       C1016   1.291       .  A
O994      Zr1004   2.422       .  S
O994       C1015   1.289       .  A
O995      Zr1005   2.437       .  S
O995       C1016   1.293       .  A
O996      Zr1002   2.432       .  S
O996       C1011   1.291       .  A
O997      Zr1003   2.447       .  S
O997       C1014   1.295       .  A
O998      Zr2827   2.446       .  S
O998       C1013   1.294       .  A
O999      Zr2826   2.442       .  S
O999       C1012   1.294       .  A
O1000     Zr1006   2.432       .  S
O1000      C1009   1.291       .  A
O1001     Zr1006   2.431   1_655  S
O1001      C1010   1.291       .  A
Zr1002     O2823   2.442   1_455  S
Zr1002     O2800   2.335   1_455  S
Zr1002     O1008   2.337       .  S
Zr1002     O2844   2.338   1_455  S
Zr1003     O2822   2.446   1_455  S
Zr1003     O2809   2.344   1_455  S
Zr1003     O2831   2.338   1_455  S
Zr1003     O1018   2.342       .  S
Zr1004     O1008   2.336       .  S
Zr1004     O1018   2.338       .  S
Zr1005     O1007   2.337       .  S
Zr1005     O1020   2.342       .  S
Zr1006     O2817   2.432   1_455  S
Zr1006     O2831   2.340   1_455  S
Zr1006     O1008   2.333       .  S
Zr1006     O2844   2.340   1_455  S
Zr1006     O1018   2.339       .  S
O1007     Zr2827   2.338       .  S
O1007     Zr2830   2.340       .  S
C1009      C1340   1.469       .  S
C1010      C1350   1.486       .  S
C1011      C1230   1.484       .  S
C1012      C1240   1.486       .  S
C1013      C1210   1.491       .  S
C1014      C1220   1.493       .  S
C1015      C1200   1.484       .  S
C1016      C1180   1.486       .  S
H1017      O1018   0.966       .  S
H1019      O1020   0.966       .  S
O1020     Zr2826   2.338       .  S
O1020     Zr2830   2.340       .  S
O1021     Zr1057   2.443   1_565  S
O1021      C1032   1.294       .  A
O1022     Zr1056   2.433   1_545  S
O1022      C1033   1.291       .  A
O1023     Zr1029   2.437       .  S
O1023      C1034   1.292       .  A
O1024      C1035   1.291       .  A
O1025     Zr1059   2.441       .  S
O1025      C1035   1.294       .  A
O1026     Zr1058   2.440       .  S
O1026      C1034   1.292       .  A
O1027     Zr1029   2.438   1_545  S
O1027      C1033   1.293       .  A
O1028     Zr1029   2.433       .  S
O1028      C1032   1.291       .  A
Zr1029     O1031   2.336       .  S
Zr1029     O1037   2.337       .  S
O1030     Zr1059   2.339       .  S
O1031     Zr1057   2.339   1_565  S
O1031     Zr1058   2.336       .  S
C1034      C1143   1.471       .  S
C1035      C1130   1.486       .  S
H1036      O1037   0.966       .  S
O1037     Zr1056   2.340       .  S
O1037     Zr1058   2.343       .  S
H1038      O1039   0.966       .  S
O1039     Zr1059   2.345       .  S
O1040     Zr1056   2.430       .  S
O1040      C1063   1.291       .  A
O1041     Zr1057   2.435       .  S
O1041      C1064   1.292   1_545  A
O1042     Zr1058   2.435       .  S
O1042      C1065   1.292       .  A
O1043     Zr1059   2.437       .  S
O1043      C1066   1.293       .  A
O1044     Zr1059   2.440       .  S
O1044      C1067   1.293       .  A
O1045     Zr1058   2.434       .  S
O1045      C1068   1.292       .  A
O1046     Zr1060   2.435       .  S
O1046      C1069   1.292       .  A
O1047      C1070   1.292       .  A
O1048     Zr1058   2.438       .  S
O1048      C1069   1.293       .  A
O1049     Zr1059   2.444       .  S
O1049      C1070   1.293       .  A
O1050     Zr1056   2.432       .  S
O1050      C1065   1.291       .  A
O1051     Zr1057   2.434   1_565  S
O1051      C1068   1.292       .  A
O1052      C1067   1.294       .  A
O1053      C1066   1.292       .  A
O1054     Zr1060   2.445       .  S
O1054      C1063   1.294       .  A
O1055     Zr1060   2.440       .  S
O1055      C1064   1.293       .  A
Zr1056     O1062   2.335       .  S
Zr1057     O1072   2.343   1_545  S
Zr1058     O1062   2.337       .  S
Zr1058     O1072   2.340       .  S
Zr1059     O1061   2.337       .  S
Zr1059     O1074   2.340       .  S
Zr1060     O1062   2.334       .  S
Zr1060     O1072   2.341       .  S
C1065      C1203   1.485       .  S
C1066      C1193   1.488       .  S
C1067      C1170   1.491       .  S
C1068      C1183   1.486       .  S
C1069      C1150   1.486       .  S
C1070      C1160   1.472       .  S
H1071      O1072   0.966       .  S
H1073      O1074   0.966       .  S
O1075     Zr1111   2.450       .  S
O1075      C1086   1.296       .  A
O1076     Zr1110   2.431       .  S
O1076      C1087   1.291       .  A
O1077     Zr1539   2.438   1_554  S
O1077      C1088   1.292       .  A
O1078     Zr1083   2.434       .  S
O1078      C1089   1.292       .  A
O1079     Zr1113   2.430       .  S
O1079      C1089   1.291       .  A
O1080     Zr1112   2.446       .  S
O1080      C1088   1.295       .  A
O1081     Zr1083   2.439       .  S
O1081      C1087   1.293       .  A
O1082     Zr1083   2.430       .  S
O1082      C1086   1.291       .  A
Zr1083     O1533   2.439       .  S
Zr1083     O1084   2.335       .  S
Zr1083     O1541   2.339       .  S
Zr1083     O1093   2.343       .  S
Zr1083     O1547   2.337       .  S
O1084     Zr1110   2.336       .  S
O1084     Zr1113   2.340       .  S
O1085     Zr1539   2.338   1_554  S
O1085     Zr1567   2.340   1_554  S
O1085     Zr1112   2.340       .  S
C1086      C1736   1.489       .  S
C1087      C1729   1.484       .  S
C1088      C1223   1.492       .  S
C1089      C1233   1.484       .  S
H1090      O1091   0.966       .  S
O1091     Zr1539   2.337   1_554  S
O1091     Zr1566   2.342   1_554  S
O1091     Zr1112   2.340       .  S
H1092      O1093   0.966       .  S
O1093     Zr1111   2.340       .  S
O1093     Zr1113   2.338       .  S
O1094     Zr1110   2.439       .  S
O1094      C1117   1.292       .  A
O1095     Zr1111   2.442       .  S
O1095      C1118   1.294       .  A
O1096     Zr1112   2.439       .  S
O1096      C1119   1.292       .  A
O1097     Zr1113   2.430       .  S
O1097      C1120   1.291       .  A
O1098     Zr1113   2.440       .  S
O1098      C1121   1.292       .  A
O1099     Zr1112   2.434       .  S
O1099      C1122   1.292       .  A
O1100     Zr1570   2.433   1_554  S
O1100      C1123   1.291       .  A
O1101     Zr1114   2.427       .  S
O1101      C1124   1.290       .  A
O1102     Zr1112   2.447       .  S
O1102      C1123   1.295       .  A
O1103     Zr1113   2.439       .  S
O1103      C1124   1.293       .  A
O1104     Zr1566   2.441   1_554  S
O1104      C1119   1.293       .  A
O1105     Zr1567   2.435   1_554  S
O1105      C1122   1.293       .  A
O1106     Zr1111   2.440       .  S
O1106      C1121   1.292       .  A
O1107     Zr1110   2.448       .  S
O1107      C1120   1.295       .  A
O1108     Zr1114   2.438       .  S
O1108      C1117   1.293       .  A
O1109     Zr1114   2.432       .  S
O1109      C1118   1.291       .  A
Zr1110     O1560   2.440       .  S
Zr1110     O1547   2.342       .  S
Zr1110     O1572   2.341       .  S
Zr1110     O1128   2.340       .  S
Zr1111     O1561   2.437       .  S
Zr1111     O1541   2.340       .  S
Zr1111     O1115   2.338       .  S
Zr1111     O1582   2.344       .  S
Zr1112     O1116   2.339       .  S
Zr1112     O1126   2.339       .  S
Zr1113     O1115   2.334       .  S
Zr1113     O1128   2.341       .  S
Zr1114     O1556   2.434       .  S
Zr1114     O1115   2.339       .  S
Zr1114     O1572   2.336       .  S
Zr1114     O1128   2.339       .  S
Zr1114     O1582   2.339       .  S
O1116     Zr1566   2.341   1_554  S
O1116     Zr1570   2.335   1_554  S
C1117      C1709   1.486       .  S
C1118      C1716   1.487       .  S
C1119      C1140   1.471       .  S
C1120      C1153   1.487       .  S
C1121      C1163   1.472       .  S
C1122      C1133   1.486       .  S
C1123      C1213   1.491       .  S
C1124      C1243   1.486       .  S
H1125      O1126   0.966       .  S
O1126     Zr1567   2.344   1_554  S
O1126     Zr1570   2.339   1_554  S
H1127      O1128   0.966       .  S
C1129      C1130   1.406       .  A
C1129      C1134   1.396       .  A
C1129      H1136   1.083       .  S
C1130      C1131   1.411       .  A
C1131      C1132   1.396       .  A
C1131      F1138   1.358       .  S
C1132      C1133   1.406       .  A
C1132      H1137   1.083       .  S
C1133      C1134   1.411       .  A
C1134      F1135   1.357       .  S
C1139      C1140   1.404       .  A
C1139      C1144   1.399       .  A
C1139      H1146   1.084       .  S
C1140      C1141   1.405       .  A
C1141      C1142   1.398       .  A
C1141      F1148   1.358       .  S
C1142      C1143   1.403       .  A
C1142      H1147   1.084       .  S
C1143      C1144   1.405       .  A
C1144      F1145   1.358       .  S
C1149      C1150   1.406       .  A
C1149      C1154   1.397       .  A
C1149      H1156   1.083       .  S
C1150      C1151   1.410       .  A
C1151      C1152   1.398       .  A
C1151      F1158   1.358       .  S
C1152      C1153   1.406       .  A
C1152      H1157   1.083       .  S
C1153      C1154   1.411       .  A
C1154      F1155   1.358       .  S
C1159      C1160   1.404       .  A
C1159      C1164   1.399       .  A
C1159      H1166   1.084       .  S
C1160      C1161   1.405       .  A
C1161      C1162   1.399       .  A
C1161      F1168   1.358       .  S
C1162      C1163   1.404       .  A
C1162      H1167   1.084       .  S
C1163      C1164   1.405       .  A
C1164      F1165   1.358       .  S
C1169      C1170   1.407       .  A
C1169      C1174   1.400       .  A
C1169      H1176   1.083       .  S
C1170      C1171   1.411       .  A
C1171      C1172   1.400       .  A
C1171      F1178   1.357       .  S
C1172      C1173   1.407       .  A
C1172      H1177   1.083       .  S
C1173      C1174   1.412       .  A
C1174      F1175   1.358       .  S
C1179      C1180   1.406       .  A
C1179      C1184   1.395       .  A
C1179      H1186   1.083       .  S
C1180      C1181   1.411       .  A
C1181      C1182   1.397       .  A
C1181      F1188   1.358       .  S
C1182      C1183   1.407       .  A
C1182      H1187   1.083       .  S
C1183      C1184   1.410       .  A
C1184      F1185   1.357       .  S
C1189      C1190   1.406       .  A
C1189      C1194   1.397       .  A
C1189      H1196   1.083       .  S
C1190      C1191   1.412       .  A
C1191      C1192   1.397       .  A
C1191      F1198   1.358       .  S
C1192      C1193   1.406       .  A
C1192      H1197   1.083       .  S
C1193      C1194   1.411       .  A
C1194      F1195   1.357       .  S
C1199      C1200   1.404       .  A
C1199      C1204   1.395       .  A
C1199      H1206   1.083       .  S
C1200      C1201   1.412       .  A
C1201      C1202   1.397       .  A
C1201      F1208   1.358       .  S
C1202      C1203   1.406       .  A
C1202      H1207   1.083       .  S
C1203      C1204   1.411       .  A
C1204      F1205   1.357       .  S
C1209      C1210   1.407       .  A
C1209      C1214   1.399       .  A
C1209      H1216   1.083       .  S
C1210      C1211   1.412       .  A
C1211      C1212   1.398       .  A
C1211      F1218   1.357       .  S
C1212      C1213   1.406       .  A
C1212      H1217   1.083       .  S
C1213      C1214   1.412       .  A
C1214      F1215   1.358       .  S
C1219      C1220   1.407       .  A
C1219      C1224   1.399       .  A
C1219      H1226   1.083       .  S
C1220      C1221   1.412       .  A
C1221      C1222   1.400       .  A
C1221      F1228   1.357       .  S
C1222      C1223   1.407       .  A
C1222      H1227   1.083       .  S
C1223      C1224   1.412       .  A
C1224      F1225   1.358       .  S
C1229      C1230   1.406       .  A
C1229      C1234   1.395       .  A
C1229      H1236   1.083       .  S
C1230      C1231   1.410       .  A
C1231      C1232   1.395       .  A
C1231      F1238   1.358       .  S
C1232      C1233   1.406       .  A
C1232      H1237   1.083       .  S
C1233      C1234   1.410       .  A
C1234      F1235   1.358       .  S
C1239      C1240   1.406       .  A
C1239      C1244   1.396       .  A
C1239      H1246   1.083       .  S
C1240      C1241   1.412       .  A
C1241      C1242   1.396       .  A
C1241      F1248   1.358       .  S
C1242      C1243   1.406       .  A
C1242      H1247   1.083       .  S
C1243      C1244   1.411       .  A
C1244      F1245   1.358       .  S
C1249      C1706   1.406       .  A
C1249      C1254   1.397       .  A
C1249      H1256   1.083       .  S
C1250      C1705   1.406   1_554  A
C1250      C1251   1.409       .  A
C1251      C1252   1.398       .  A
C1251      F1258   1.358       .  S
C1252      C1253   1.407       .  A
C1252      H1257   1.083       .  S
C1253      C1573   1.485   1_554  S
C1253      C1710   1.410   1_554  A
C1254      C1709   1.410       .  A
C1254      F1255   1.358       .  S
C1259      C1716   1.406       .  A
C1259      C1264   1.397       .  A
C1259      H1266   1.083       .  S
C1260      C1574   1.487       .  S
C1260      C1715   1.406       .  A
C1260      C1261   1.411   1_556  A
C1261      C1262   1.397       .  A
C1261      F1268   1.358       .  S
C1262      C1263   1.406   1_554  A
C1262      H1267   1.083       .  S
C1263      C1720   1.411       .  A
C1264      C1719   1.411       .  A
C1264      F1265   1.358       .  S
C1269      C1270   1.406   1_554  A
C1269      C1274   1.398       .  A
C1269      H1276   1.083       .  S
C1270      C1727   1.410       .  A
C1271      C1726   1.410       .  A
C1271      C1272   1.396       .  A
C1271      F1278   1.357       .  S
C1272      C1729   1.405       .  A
C1272      H1277   1.083       .  S
C1273      C1543   1.484       .  S
C1273      C1728   1.405       .  A
C1273      C1274   1.410   1_556  A
C1274      F1275   1.358       .  S
C1279      C1280   1.405       .  A
C1279      C1284   1.397       .  A
C1279      H1286   1.083       .  S
C1280      C1542   1.489       .  S
C1280      C1737   1.413       .  A
C1281      C1736   1.413       .  A
C1281      C1282   1.398       .  A
C1281      F1288   1.358       .  S
C1282      C1739   1.406       .  A
C1282      H1287   1.083       .  S
C1283      C1738   1.406       .  A
C1283      C1284   1.411       .  A
C1284      F1285   1.357       .  S
C1289      C1290   1.407       .  A
C1289      C1294   1.397       .  A
C1289      H1296   1.083       .  S
C1291      C1292   1.397       .  A
C1291      F1298   1.358       .  S
C1292      H1297   1.083       .  S
C1293      C1294   1.410       .  A
C1294      F1295   1.357       .  S
C1299      C1300   1.406       .  A
C1299      C1304   1.396       .  A
C1299      H1306   1.083       .  S
C1301      C1302   1.399       .  A
C1301      F1308   1.358       .  S
C1302      H1307   1.083       .  S
C1303      C1304   1.411       .  A
C1304      F1305   1.357       .  S
C1309      C1314   1.397       .  A
C1309      H1316   1.083       .  S
C1310      C1311   1.412       .  A
C1311      C1312   1.398       .  A
C1311      F1318   1.358       .  S
C1312      C1313   1.406       .  A
C1312      H1317   1.083       .  S
C1314      F1315   1.358       .  S
C1319      C1324   1.397       .  A
C1319      H1326   1.083   1_565  S
C1320      C1321   1.412       .  A
C1321      C1322   1.398       .  A
C1321      F1328   1.358       .  S
C1322      C1323   1.407       .  A
C1322      H1327   1.083       .  S
C1324      F1325   1.357   1_565  S
C1329      C3154   1.406       .  A
C1329      C1334   1.398       .  A
C1329      H1336   1.083       .  S
C1330      C3153   1.406   1_655  A
C1330      C1331   1.408       .  A
C1331      C1332   1.397       .  A
C1331      F1338   1.358       .  S
C1332      C1333   1.405       .  A
C1332      H1337   1.083       .  S
C1333      C3158   1.410   1_655  A
C1334      C3157   1.410       .  A
C1334      F1335   1.358       .  S
C1339      C3164   1.403       .  A
C1339      C1344   1.396       .  A
C1339      H1346   1.084       .  S
C1340      C3163   1.403       .  A
C1340      C1341   1.405   1_455  A
C1341      C1342   1.395       .  A
C1341      F1348   1.358       .  S
C1342      C1343   1.403   1_655  A
C1342      H1347   1.084       .  S
C1343      C3168   1.406       .  A
C1344      C3167   1.406       .  A
C1344      F1345   1.357       .  S
C1349      C1350   1.406       .  A
C1349      C1354   1.396       .  A
C1349      H1356   1.083   1_655  S
C1350      C3175   1.411       .  A
C1351      C3174   1.411       .  A
C1351      C1352   1.396       .  A
C1351      F1358   1.358       .  S
C1352      C3177   1.407       .  A
C1352      H1357   1.083       .  S
C1353      C3176   1.407       .  A
C1353      C1354   1.411       .  A
C1354      F1355   1.358   1_655  S
C1359      C1360   1.407   1_655  A
C1359      C1364   1.397       .  A
C1359      H1366   1.083       .  S
C1360      C3185   1.411       .  A
C1361      C3184   1.411       .  A
C1361      C1362   1.396       .  A
C1361      F1368   1.358       .  S
C1362      C3187   1.406       .  A
C1362      H1367   1.083       .  S
C1363      C3186   1.406       .  A
C1363      C1364   1.411   1_455  A
C1364      F1365   1.358       .  S
O1369     Zr1405   2.436       .  S
O1369      C1380   1.293       .  A
O1370     Zr1404   2.442       .  S
O1370      C1381   1.293       .  A
O1371     Zr1377   2.442   1_455  S
O1371      C1382   1.294       .  A
O1372     Zr3201   2.439       .  S
O1372      C1383   1.293       .  A
O1373     Zr1407   2.434       .  S
O1373      C1383   1.292       .  A
O1374     Zr1406   2.431       .  S
O1374      C1382   1.291       .  A
O1375      C1381   1.292       .  A
O1376     Zr1377   2.435       .  S
O1376      C1380   1.292   1_655  A
Zr1377     O3196   2.439       .  S
Zr1377     O2746   2.338       .  S
Zr1377     O1379   2.336   1_655  S
Zr1377     O3211   2.340       .  S
O1378     Zr2745   2.338   1_556  S
O1378     Zr3228   2.336       .  S
O1379     Zr1405   2.336       .  S
O1379     Zr1406   2.339       .  S
C1380      C1816   1.487       .  S
C1381      C1786   1.481       .  S
C1382      C1739   1.488       .  S
C1383      C1719   1.487       .  S
H1384      O1385   0.966       .  S
O1385     Zr1404   2.337   1_455  S
H1386      O1387   0.966       .  S
O1387     Zr3201   2.340       .  S
O1387     Zr3229   2.343       .  S
O1387     Zr1407   2.344       .  S
O1388      C1411   1.291       .  A
O1389      C1412   1.293       .  A
O1390      C1413   1.292       .  A
O1391      C1414   1.294       .  A
O1392     Zr1407   2.439       .  S
O1392      C1415   1.294       .  A
O1393     Zr1406   2.429       .  S
O1393      C1416   1.291       .  A
O1394     Zr1408   2.436       .  S
O1394      C1417   1.292       .  A
O1395     Zr3232   2.440       .  S
O1395      C1418   1.293       .  A
O1396      C1417   1.293       .  A
O1397      C1418   1.292       .  A
O1398     Zr1404   2.440   1_455  S
O1398      C1413   1.293       .  A
O1399     Zr1405   2.445       .  S
O1399      C1416   1.294       .  A
O1400     Zr3229   2.437       .  S
O1400      C1415   1.292       .  A
O1401     Zr3228   2.433       .  S
O1401      C1414   1.291       .  A
O1402      C1411   1.291       .  A
O1403     Zr1408   2.435   1_655  S
O1403      C1412   1.291       .  A
Zr1404     O3225   2.433       .  S
Zr1404     O3202   2.336       .  S
Zr1404     O2334   2.342       .  S
Zr1405     O3224   2.437   1_455  S
Zr1405     O3211   2.343   1_455  S
Zr1405     O2321   2.338   1_455  S
Zr1408     O3219   2.440   1_455  S
Zr1408     O3233   2.334   1_455  S
Zr1408     O2790   2.342   1_455  S
Zr1408     O1420   2.338       .  S
O1409     Zr2317   2.338       .  S
O1409     Zr3232   2.334       .  S
C1411      C1799   1.467       .  S
C1412      C1809   1.487       .  S
C1413      C1759   1.489       .  S
C1414      C1746   1.489       .  S
C1415      C1779   1.488       .  S
C1416      C1766   1.487       .  S
C1417      C1726   1.485       .  S
C1418      C1706   1.485       .  S
H1419      O1420   0.966       .  S
H1421      O1422   0.966       .  S
O1422     Zr2316   2.342       .  S
O1422     Zr2776   2.341       .  S
O1423     Zr1459   2.437       .  S
O1423      C1434   1.293       .  A
O1424     Zr1458   2.433   1_455  S
O1424      C1435   1.291   1_455  A
O1425     Zr1431   2.446   1_455  S
O1425      C1436   1.295       .  A
O1426     Zr3255   2.442       .  S
O1426      C1437   1.293       .  A
O1427     Zr1461   2.445       .  S
O1427      C1437   1.294       .  A
O1428     Zr1460   2.425       .  S
O1428      C1436   1.290       .  A
O1429     Zr1431   2.440       .  S
O1429      C1435   1.293       .  A
O1430     Zr1431   2.433       .  S
O1430      C1434   1.292   1_655  A
Zr1431     O3250   2.442       .  S
Zr1431     O3256   2.335       .  S
Zr1431     O1433   2.339   1_655  S
Zr1431     O3265   2.343       .  S
Zr1431     O1439   2.338   1_655  S
O1432     Zr3255   2.335       .  S
O1432     Zr3282   2.335       .  S
O1432     Zr1461   2.337       .  S
O1433     Zr1459   2.339       .  S
O1433     Zr1460   2.334       .  S
C1434      C1819   1.487       .  S
C1435      C1789   1.481       .  S
C1436      C1646   1.488       .  S
C1437      C1629   1.492       .  S
H1438      O1439   0.966       .  S
O1439     Zr1458   2.339   1_455  S
O1439     Zr1460   2.339       .  S
H1440      O1441   0.966       .  S
O1441     Zr3255   2.343       .  S
O1441     Zr3283   2.344       .  S
O1441     Zr1461   2.337       .  S
O1442     Zr1458   2.431   1_455  S
O1442      C1465   1.291       .  A
O1443     Zr1459   2.439   1_655  S
O1443      C1466   1.293       .  A
O1444     Zr1460   2.432       .  S
O1444      C1467   1.292       .  A
O1445     Zr1461   2.427       .  S
O1445      C1468   1.290       .  A
O1446     Zr1461   2.437       .  S
O1446      C1469   1.292       .  A
O1447     Zr1460   2.439       .  S
O1447      C1470   1.292       .  A
O1448     Zr1462   2.441       .  S
O1448      C1471   1.294       .  A
O1449     Zr3286   2.431       .  S
O1449      C1472   1.291       .  A
O1450     Zr1460   2.422       .  S
O1450      C1471   1.289       .  A
O1451     Zr1461   2.437       .  S
O1451      C1472   1.293       .  A
O1452     Zr1458   2.432   1_455  S
O1452      C1467   1.291       .  A
O1453     Zr1459   2.447       .  S
O1453      C1470   1.295       .  A
O1454     Zr3283   2.447       .  S
O1454      C1469   1.295       .  A
O1455     Zr3282   2.442       .  S
O1455      C1468   1.294       .  A
O1456     Zr1462   2.430       .  S
O1456      C1465   1.291       .  A
O1457     Zr1462   2.430       .  S
O1457      C1466   1.291   1_455  A
Zr1458     O3279   2.442       .  S
Zr1458     O3256   2.335       .  S
Zr1458     O1464   2.337   1_655  S
Zr1458     O3300   2.339       .  S
Zr1459     O3278   2.447   1_455  S
Zr1459     O3265   2.344   1_455  S
Zr1459     O3287   2.338   1_455  S
Zr1459     O1474   2.342       .  S
Zr1460     O1464   2.336       .  S
Zr1460     O1474   2.337       .  S
Zr1461     O1463   2.336       .  S
Zr1461     O1476   2.342       .  S
Zr1462     O3273   2.431   1_455  S
Zr1462     O3287   2.339   1_455  S
Zr1462     O1464   2.333       .  S
Zr1462     O3300   2.340   1_455  S
Zr1462     O1474   2.338       .  S
O1463     Zr3283   2.338       .  S
O1463     Zr3286   2.339       .  S
C1465      C1796   1.467       .  S
C1466      C1806   1.486       .  S
C1467      C1686   1.484       .  S
C1468      C1696   1.485       .  S
C1469      C1666   1.492       .  S
C1470      C1676   1.493       .  S
C1471      C1656   1.484       .  S
C1472      C1636   1.485       .  S
H1473      O1474   0.966       .  S
H1475      O1476   0.966       .  S
O1476     Zr3282   2.339       .  S
O1476     Zr3286   2.340       .  S
O1477     Zr1513   2.441   1_565  S
O1477      C1488   1.294       .  A
O1478     Zr1512   2.432   1_545  S
O1478      C1489   1.291       .  A
O1479     Zr1485   2.438       .  S
O1479      C1490   1.292       .  A
O1480      C1491   1.290       .  A
O1481     Zr1515   2.442       .  S
O1481      C1491   1.294       .  A
O1482     Zr1514   2.438       .  S
O1482      C1490   1.292       .  A
O1483     Zr1485   2.438   1_545  S
O1483      C1489   1.293       .  A
O1484     Zr1485   2.434       .  S
O1484      C1488   1.291       .  A
Zr1485     O1487   2.336       .  S
Zr1485     O1493   2.337       .  S
O1486     Zr1515   2.338       .  S
O1487     Zr1513   2.339   1_565  S
O1487     Zr1514   2.336       .  S
C1490      C1599   1.470       .  S
C1491      C1586   1.486       .  S
H1492      O1493   0.966       .  S
O1493     Zr1512   2.341       .  S
O1493     Zr1514   2.343       .  S
H1494      O1495   0.966       .  S
O1495     Zr1515   2.345       .  S
O1496     Zr1512   2.429       .  S
O1496      C1519   1.290       .  A
O1497     Zr1513   2.433   1_565  S
O1497      C1520   1.292       .  A
O1498     Zr1514   2.435       .  S
O1498      C1521   1.293       .  A
O1499     Zr1515   2.437       .  S
O1499      C1522   1.293       .  A
O1500     Zr1515   2.440       .  S
O1500      C1523   1.293       .  A
O1501     Zr1514   2.434       .  S
O1501      C1524   1.292       .  A
O1502     Zr1516   2.435       .  S
O1502      C1525   1.292       .  A
O1503      C1526   1.291       .  A
O1504     Zr1514   2.437       .  S
O1504      C1525   1.293       .  A
O1505     Zr1515   2.444       .  S
O1505      C1526   1.293       .  A
O1506     Zr1512   2.431       .  S
O1506      C1521   1.291       .  A
O1507     Zr1513   2.433   1_565  S
O1507      C1524   1.292       .  A
O1508      C1523   1.294       .  A
O1509      C1522   1.292       .  A
O1510     Zr1516   2.444       .  S
O1510      C1519   1.294       .  A
O1511     Zr1516   2.440       .  S
O1511      C1520   1.293       .  A
Zr1512     O1518   2.335       .  S
Zr1513     O1528   2.343   1_545  S
Zr1514     O1518   2.336       .  S
Zr1514     O1528   2.339       .  S
Zr1515     O1517   2.337       .  S
Zr1515     O1530   2.339       .  S
Zr1516     O1518   2.334       .  S
Zr1516     O1528   2.340       .  S
C1521      C1659   1.485       .  S
C1522      C1649   1.489       .  S
C1523      C1626   1.491       .  S
C1524      C1639   1.485       .  S
C1525      C1606   1.485       .  S
C1526      C1616   1.471       .  S
H1527      O1528   0.966       .  S
H1529      O1530   0.966       .  S
O1531     Zr1567   2.451       .  S
O1531      C1542   1.296       .  A
O1532     Zr1566   2.432       .  S
O1532      C1543   1.291       .  A
O1533      C1544   1.292       .  A
O1534     Zr1539   2.433       .  S
O1534      C1545   1.292       .  A
O1535     Zr1569   2.430       .  S
O1535      C1545   1.291       .  A
O1536     Zr1568   2.446       .  S
O1536      C1544   1.295       .  A
O1537     Zr1539   2.439       .  S
O1537      C1543   1.293       .  A
O1538     Zr1539   2.429       .  S
O1538      C1542   1.290       .  A
Zr1539     O1540   2.335       .  S
Zr1539     O1549   2.343       .  S
O1540     Zr1566   2.336       .  S
O1540     Zr1569   2.339       .  S
O1541     Zr1568   2.340       .  S
C1544      C1679   1.492       .  S
C1545      C1689   1.484       .  S
H1546      O1547   0.966       .  S
O1547     Zr1568   2.341       .  S
H1548      O1549   0.966       .  S
O1549     Zr1567   2.340       .  S
O1549     Zr1569   2.337       .  S
O1550     Zr1566   2.438       .  S
O1550      C1573   1.292       .  A
O1551     Zr1567   2.442       .  S
O1551      C1574   1.294       .  A
O1552     Zr1568   2.438       .  S
O1552      C1575   1.292       .  A
O1553     Zr1569   2.429       .  S
O1553      C1576   1.291       .  A
O1554     Zr1569   2.441       .  S
O1554      C1577   1.292       .  A
O1555     Zr1568   2.433       .  S
O1555      C1578   1.291       .  A
O1556      C1579   1.291       .  A
O1557     Zr1570   2.425       .  S
O1557      C1580   1.290       .  A
O1558     Zr1568   2.447       .  S
O1558      C1579   1.295       .  A
O1559     Zr1569   2.437       .  S
O1559      C1580   1.293       .  A
O1560      C1575   1.292       .  A
O1561      C1578   1.293       .  A
O1562     Zr1567   2.439       .  S
O1562      C1577   1.292       .  A
O1563     Zr1566   2.447       .  S
O1563      C1576   1.295       .  A
O1564     Zr1570   2.439       .  S
O1564      C1573   1.293       .  A
O1565     Zr1570   2.433       .  S
O1565      C1574   1.291       .  A
Zr1566     O1584   2.340       .  S
Zr1567     O1571   2.338       .  S
Zr1568     O1572   2.339       .  S
Zr1568     O1582   2.339       .  S
Zr1569     O1571   2.334       .  S
Zr1569     O1584   2.341       .  S
Zr1570     O1571   2.339       .  S
Zr1570     O1584   2.339       .  S
C1575      C1596   1.470       .  S
C1576      C1609   1.486       .  S
C1577      C1619   1.472       .  S
C1578      C1589   1.486       .  S
C1579      C1669   1.491       .  S
C1580      C1699   1.484       .  S
H1581      O1582   0.966       .  S
H1583      O1584   0.966       .  S
C1585      C1586   1.405       .  A
C1585      C1590   1.396       .  A
C1585      H1592   1.083       .  S
C1586      C1587   1.411       .  A
C1587      C1588   1.396       .  A
C1587      F1594   1.358       .  S
C1588      C1589   1.406       .  A
C1588      H1593   1.083       .  S
C1589      C1590   1.411       .  A
C1590      F1591   1.357       .  S
C1595      C1596   1.403       .  A
C1595      C1600   1.398       .  A
C1595      H1602   1.084       .  S
C1596      C1597   1.405       .  A
C1597      C1598   1.398       .  A
C1597      F1604   1.358       .  S
C1598      C1599   1.403       .  A
C1598      H1603   1.084       .  S
C1599      C1600   1.405       .  A
C1600      F1601   1.358       .  S
C1605      C1606   1.406       .  A
C1605      C1610   1.397       .  A
C1605      H1612   1.083       .  S
C1606      C1607   1.410       .  A
C1607      C1608   1.397       .  A
C1607      F1614   1.358       .  S
C1608      C1609   1.406       .  A
C1608      H1613   1.083       .  S
C1609      C1610   1.411       .  A
C1610      F1611   1.358       .  S
C1615      C1616   1.403       .  A
C1615      C1620   1.399       .  A
C1615      H1622   1.084       .  S
C1616      C1617   1.405       .  A
C1617      C1618   1.399       .  A
C1617      F1624   1.358       .  S
C1618      C1619   1.404       .  A
C1618      H1623   1.084       .  S
C1619      C1620   1.406       .  A
C1620      F1621   1.358       .  S
C1625      C1626   1.407       .  A
C1625      C1630   1.400       .  A
C1625      H1632   1.083       .  S
C1626      C1627   1.411       .  A
C1627      C1628   1.400       .  A
C1627      F1634   1.358       .  S
C1628      C1629   1.407       .  A
C1628      H1633   1.083       .  S
C1629      C1630   1.412       .  A
C1630      F1631   1.358       .  S
C1635      C1636   1.406       .  A
C1635      C1640   1.394       .  A
C1635      H1642   1.083       .  S
C1636      C1637   1.411       .  A
C1637      C1638   1.397       .  A
C1637      F1644   1.358       .  S
C1638      C1639   1.407       .  A
C1638      H1643   1.083       .  S
C1639      C1640   1.410       .  A
C1640      F1641   1.357       .  S
C1645      C1646   1.406       .  A
C1645      C1650   1.397       .  A
C1645      H1652   1.083       .  S
C1646      C1647   1.412       .  A
C1647      C1648   1.397       .  A
C1647      F1654   1.358       .  S
C1648      C1649   1.407       .  A
C1648      H1653   1.083       .  S
C1649      C1650   1.411       .  A
C1650      F1651   1.357       .  S
C1655      C1656   1.405       .  A
C1655      C1660   1.394       .  A
C1655      H1662   1.083       .  S
C1656      C1657   1.412       .  A
C1657      C1658   1.397       .  A
C1657      F1664   1.358       .  S
C1658      C1659   1.406       .  A
C1658      H1663   1.083       .  S
C1659      C1660   1.411       .  A
C1660      F1661   1.357       .  S
C1665      C1666   1.407       .  A
C1665      C1670   1.399       .  A
C1665      H1672   1.083       .  S
C1666      C1667   1.412       .  A
C1667      C1668   1.398       .  A
C1667      F1674   1.357       .  S
C1668      C1669   1.406       .  A
C1668      H1673   1.083       .  S
C1669      C1670   1.412       .  A
C1670      F1671   1.358       .  S
C1675      C1676   1.407       .  A
C1675      C1680   1.399       .  A
C1675      H1682   1.083       .  S
C1676      C1677   1.412       .  A
C1677      C1678   1.400       .  A
C1677      F1684   1.357       .  S
C1678      C1679   1.407       .  A
C1678      H1683   1.083       .  S
C1679      C1680   1.412       .  A
C1680      F1681   1.358       .  S
C1685      C1686   1.406       .  A
C1685      C1690   1.395       .  A
C1685      H1692   1.083       .  S
C1686      C1687   1.410       .  A
C1687      C1688   1.395       .  A
C1687      F1694   1.358       .  S
C1688      C1689   1.406       .  A
C1688      H1693   1.083       .  S
C1689      C1690   1.410       .  A
C1690      F1691   1.358       .  S
C1695      C1696   1.405       .  A
C1695      C1700   1.395       .  A
C1695      H1702   1.083       .  S
C1696      C1697   1.412       .  A
C1697      C1698   1.396       .  A
C1697      F1704   1.358       .  S
C1698      C1699   1.405       .  A
C1698      H1703   1.083       .  S
C1699      C1700   1.411       .  A
C1700      F1701   1.358       .  S
C1705      C1710   1.397       .  A
C1705      H1712   1.083       .  S
C1706      C1707   1.409       .  A
C1707      C1708   1.398       .  A
C1707      F1714   1.358       .  S
C1708      C1709   1.407       .  A
C1708      H1713   1.083       .  S
C1710      F1711   1.358       .  S
C1715      C1720   1.398       .  A
C1715      H1722   1.083       .  S
C1716      C1717   1.411       .  A
C1717      C1718   1.397       .  A
C1717      F1724   1.358       .  S
C1718      C1719   1.406       .  A
C1718      H1723   1.083       .  S
C1720      F1721   1.358       .  S
C1725      C1726   1.406       .  A
C1725      C1730   1.398       .  A
C1725      H1732   1.083       .  S
C1727      C1728   1.396       .  A
C1727      F1734   1.357       .  S
C1728      H1733   1.083       .  S
C1729      C1730   1.410       .  A
C1730      F1731   1.358       .  S
C1735      C1736   1.405       .  A
C1735      C1740   1.397       .  A
C1735      H1742   1.083       .  S
C1737      C1738   1.398       .  A
C1737      F1744   1.358       .  S
C1738      H1743   1.083   1_556  S
C1739      C1740   1.411       .  A
C1740      F1741   1.357       .  S
C1745      C1746   1.407       .  A
C1745      C1750   1.397       .  A
C1745      H1752   1.083       .  S
C1747      C1748   1.397       .  A
C1747      F1754   1.358   1_565  S
C1748      H1753   1.083   1_565  S
C1749      C1750   1.410       .  A
C1750      F1751   1.357       .  S
C1755      C1756   1.405       .  A
C1755      C1760   1.397       .  A
C1755      H1762   1.083       .  S
C1757      C1758   1.398       .  A
C1757      F1764   1.358       .  S
C1758      H1763   1.083       .  S
C1759      C1760   1.411       .  A
C1760      F1761   1.357       .  S
C1765      C1770   1.397       .  A
C1765      H1772   1.083       .  S
C1766      C1767   1.412       .  A
C1767      C1768   1.397       .  A
C1767      F1774   1.358       .  S
C1768      C1769   1.406       .  A
C1768      H1773   1.083       .  S
C1770      F1771   1.358       .  S
C1775      C1780   1.397       .  A
C1775      H1782   1.083       .  S
C1776      C1777   1.411       .  A
C1777      C1778   1.397       .  A
C1777      F1784   1.358       .  S
C1778      C1779   1.407       .  A
C1778      H1783   1.083       .  S
C1780      F1781   1.357       .  S
C1785      C3610   1.406       .  A
C1785      C1790   1.398       .  A
C1785      H1792   1.083       .  S
C1786      C3609   1.406   1_655  A
C1786      C1787   1.408       .  A
C1787      C1788   1.397       .  A
C1787      F1794   1.358       .  S
C1788      C1789   1.405       .  A
C1788      H1793   1.083       .  S
C1789      C3614   1.409   1_655  A
C1790      C3613   1.409       .  A
C1790      F1791   1.358       .  S
C1795      C3620   1.403       .  A
C1795      C1800   1.395       .  A
C1795      H1802   1.084       .  S
C1796      C3619   1.403       .  A
C1796      C1797   1.405   1_455  A
C1797      C1798   1.394       .  A
C1797      F1804   1.358       .  S
C1798      C1799   1.403   1_655  A
C1798      H1803   1.084       .  S
C1799      C3624   1.405       .  A
C1800      C3623   1.405       .  A
C1800      F1801   1.357       .  S
C1805      C1806   1.406       .  A
C1805      C1810   1.396       .  A
C1805      H1812   1.083   1_655  S
C1806      C3631   1.411       .  A
C1807      C3630   1.411       .  A
C1807      C1808   1.396       .  A
C1807      F1814   1.358       .  S
C1808      C3633   1.407       .  A
C1808      H1813   1.083       .  S
C1809      C3632   1.407       .  A
C1809      C1810   1.411       .  A
C1810      F1811   1.357       .  S
C1815      C1816   1.407   1_655  A
C1815      C1820   1.397       .  A
C1815      H1822   1.083       .  S
C1816      C3641   1.411       .  A
C1817      C3640   1.411       .  A
C1817      C1818   1.396       .  A
C1817      F1824   1.358       .  S
C1818      C3643   1.406       .  A
C1818      H1823   1.083       .  S
C1819      C3642   1.406       .  A
C1819      C1820   1.411   1_455  A
C1820      F1821   1.358       .  S
O1825     Zr1861   2.436   1_545  S
O1825      C1836   1.293       .  A
O1826     Zr1860   2.442       .  S
O1826      C1837   1.293       .  A
O1827     Zr1833   2.442       .  S
O1827      C1838   1.294   1_554  A
O1828      C1839   1.293       .  A
O1829     Zr1863   2.434   1_545  S
O1829      C1839   1.292       .  A
O1830     Zr1862   2.432   1_545  S
O1830      C1838   1.291       .  A
O1831     Zr2289   2.431       .  S
O1831      C1837   1.292       .  A
O1832     Zr1833   2.435       .  S
O1832      C1836   1.292       .  A
Zr1833     O2287   2.431   1_554  S
Zr1833     O1835   2.336       .  S
Zr1833     O2297   2.342   1_554  S
O1834     Zr2319   2.336   1_545  S
O1835     Zr1861   2.336   1_545  S
O1835     Zr1862   2.339   1_544  S
C1836      C2272   1.487       .  S
C1837      C2242   1.482       .  S
C1838      C2195   1.488       .  S
C1839      C2175   1.487       .  S
H1840      O1841   0.966       .  S
O1841     Zr2289   2.342       .  S
O1841     Zr1860   2.337       .  S
O1841     Zr2318   2.339       .  S
H1842      O1843   0.966       .  S
O1843     Zr1863   2.344   1_544  S
O1844     Zr2772   2.431       .  S
O1844      C1867   1.291       .  A
O1845     Zr2773   2.437       .  S
O1845      C1868   1.293       .  A
O1846     Zr2318   2.437   1_565  S
O1846      C1869   1.292       .  A
O1847     Zr2319   2.444       .  S
O1847      C1870   1.294       .  A
O1848     Zr1863   2.440   1_554  S
O1848      C1871   1.294       .  A
O1849     Zr1862   2.429   1_544  S
O1849      C1872   1.291       .  A
O1850     Zr1864   2.436   1_554  S
O1850      C1873   1.292   1_554  A
O1851      C1874   1.293       .  A
O1852     Zr2774   2.438       .  S
O1852      C1873   1.293       .  A
O1853     Zr2775   2.435       .  S
O1853      C1874   1.292   1_556  A
O1854     Zr1860   2.441   1_565  S
O1854      C1869   1.293       .  A
O1855     Zr1861   2.446   1_545  S
O1855      C1872   1.295       .  A
O1856      C1871   1.292       .  A
O1857      C1870   1.291       .  A
O1858     Zr2320   2.429       .  S
O1858      C1867   1.291       .  A
O1859     Zr1864   2.434   1_554  S
O1859      C1868   1.291       .  A
Zr1860     O2756   2.431   1_545  S
Zr1860     O2778   2.338   1_545  S
Zr1861     O2757   2.437       .  S
Zr1861     O2788   2.340       .  S
Zr1862     O2302   2.436       .  S
Zr1862     O2764   2.439       .  S
Zr1862     O2297   2.339   1_565  S
Zr1862     O3234   2.332       .  S
Zr1862     O2788   2.341   1_556  S
Zr1863     O2303   2.444       .  S
Zr1863     O2765   2.435       .  S
Zr1863     O2290   2.336   1_565  S
Zr1863     O2777   2.338   1_556  S
Zr1863     O3246   2.337       .  S
Zr1864     O2314   2.428       .  S
Zr1864     O2322   2.338       .  S
Zr1864     O1876   2.338   1_556  S
O1865     Zr2775   2.338   1_554  S
O1866     Zr2772   2.338       .  S
O1866     Zr3230   2.332       .  S
O1866     Zr2320   2.338       .  S
C1867      C2255   1.469       .  S
C1868      C2265   1.486       .  S
C1869      C2215   1.490       .  S
C1870      C2202   1.489       .  S
C1871      C2235   1.489       .  S
C1872      C2222   1.486       .  S
C1873      C2182   1.485       .  S
C1874      C2162   1.485       .  S
H1875      O1876   0.966       .  S
O1876     Zr2773   2.340       .  S
O1876     Zr2774   2.341   1_554  S
H1877      O1878   0.966       .  S
O1878     Zr3231   2.337       .  S
O1879     Zr1915   2.437       .  S
O1879      C1890   1.293       .  A
O1880     Zr1914   2.432       .  S
O1880      C1891   1.291       .  A
O1881     Zr1887   2.445       .  S
O1881      C1892   1.294       .  A
O1882      C1893   1.293       .  A
O1883     Zr1917   2.445       .  S
O1883      C1893   1.294       .  A
O1884     Zr1916   2.425       .  S
O1884      C1892   1.290       .  A
O1885     Zr1887   2.441       .  S
O1885      C1891   1.294       .  A
O1886     Zr1887   2.434       .  S
O1886      C1890   1.292       .  A
Zr1887     O1889   2.339       .  S
Zr1887     O1895   2.339       .  S
O1888     Zr1917   2.336       .  S
O1889     Zr1915   2.339       .  S
O1889     Zr1916   2.334       .  S
C1890      C2275   1.487       .  S
C1891      C2245   1.482       .  S
C1892      C2102   1.487       .  S
C1893      C2085   1.492       .  S
H1894      O1895   0.966       .  S
O1895     Zr1914   2.340       .  S
O1895     Zr1916   2.339       .  S
H1896      O1897   0.966       .  S
O1897     Zr1917   2.338       .  S
O1898     Zr1914   2.431       .  S
O1898      C1921   1.291       .  A
O1899     Zr1915   2.438       .  S
O1899      C1922   1.293       .  A
O1900     Zr1916   2.432       .  S
O1900      C1923   1.292       .  A
O1901     Zr1917   2.429       .  S
O1901      C1924   1.290       .  A
O1902     Zr1917   2.437       .  S
O1902      C1925   1.292       .  A
O1903     Zr1916   2.439       .  S
O1903      C1926   1.292       .  A
O1904     Zr1918   2.442       .  S
O1904      C1927   1.294       .  A
O1905      C1928   1.291       .  A
O1906     Zr1916   2.422       .  S
O1906      C1927   1.289       .  A
O1907     Zr1917   2.437       .  S
O1907      C1928   1.293       .  A
O1908     Zr1914   2.432       .  S
O1908      C1923   1.291       .  A
O1909     Zr1915   2.448       .  S
O1909      C1926   1.295       .  A
O1910      C1925   1.295       .  A
O1911      C1924   1.294       .  A
O1912     Zr1918   2.432       .  S
O1912      C1921   1.291       .  A
O1913     Zr1918   2.431       .  S
O1913      C1922   1.291       .  A
Zr1914     O1920   2.337       .  S
Zr1915     O1930   2.342       .  S
Zr1916     O1920   2.336       .  S
Zr1916     O1930   2.338       .  S
Zr1917     O1919   2.337       .  S
Zr1917     O1932   2.342       .  S
Zr1918     O1920   2.334       .  S
Zr1918     O1930   2.339       .  S
C1921      C2252   1.469       .  S
C1922      C2262   1.486       .  S
C1923      C2142   1.484       .  S
C1924      C2152   1.486       .  S
C1925      C2122   1.491       .  S
C1926      C2132   1.493       .  S
C1927      C2112   1.484       .  S
C1928      C2092   1.486       .  S
H1929      O1930   0.966       .  S
H1931      O1932   0.966       .  S
O1933     Zr1969   2.443       .  S
O1933      C1944   1.294       .  A
O1934     Zr1968   2.433       .  S
O1934      C1945   1.291       .  A
O1935     Zr1941   2.437       .  S
O1935      C1946   1.292       .  A
O1936     Zr2853   2.428   1_545  S
O1936      C1947   1.290       .  A
O1937     Zr1971   2.441       .  S
O1937      C1947   1.294       .  A
O1938     Zr1970   2.440       .  S
O1938      C1946   1.292       .  A
O1939     Zr1941   2.438       .  S
O1939      C1945   1.293       .  A
O1940     Zr1941   2.433       .  S
O1940      C1944   1.291       .  A
Zr1941     O2848   2.428       .  S
Zr1941     O2854   2.337       .  S
Zr1941     O1943   2.336       .  S
Zr1941     O2863   2.346       .  S
Zr1941     O1949   2.337       .  S
O1942     Zr2853   2.337   1_545  S
O1942     Zr2880   2.332   1_545  S
O1942     Zr1971   2.339       .  S
O1943     Zr1969   2.339       .  S
O1943     Zr1970   2.336       .  S
C1944      C3144   1.489       .  S
C1945      C3137   1.486       .  S
C1946      C2055   1.471       .  S
C1947      C2042   1.486       .  S
H1948      O1949   0.966       .  S
O1949     Zr1968   2.340       .  S
O1949     Zr1970   2.342       .  S
H1950      O1951   0.966       .  S
O1951     Zr2853   2.346   1_545  S
O1951     Zr2881   2.340       .  S
O1951     Zr1971   2.345       .  S
O1952     Zr1968   2.430       .  S
O1952      C1975   1.291       .  A
O1953     Zr1969   2.434       .  S
O1953      C1976   1.292       .  A
O1954     Zr1970   2.435       .  S
O1954      C1977   1.293       .  A
O1955     Zr1971   2.437       .  S
O1955      C1978   1.293       .  A
O1956     Zr1971   2.440       .  S
O1956      C1979   1.293       .  A
O1957     Zr1970   2.434       .  S
O1957      C1980   1.291       .  A
O1958     Zr1972   2.435       .  S
O1958      C1981   1.292       .  A
O1959     Zr2884   2.437   1_545  S
O1959      C1982   1.292       .  A
O1960     Zr1970   2.438       .  S
O1960      C1981   1.293       .  A
O1961     Zr1971   2.444       .  S
O1961      C1982   1.293       .  A
O1962     Zr1968   2.432       .  S
O1962      C1977   1.291       .  A
O1963     Zr1969   2.434       .  S
O1963      C1980   1.292       .  A
O1964     Zr2881   2.443       .  S
O1964      C1979   1.294       .  A
O1965     Zr2880   2.438   1_545  S
O1965      C1978   1.292       .  A
O1966     Zr1972   2.444       .  S
O1966      C1975   1.294       .  A
O1967     Zr1972   2.440       .  S
O1967      C1976   1.293       .  A
Zr1968     O2877   2.438       .  S
Zr1968     O2854   2.332       .  S
Zr1968     O1974   2.335       .  S
Zr1968     O2898   2.338       .  S
Zr1969     O2876   2.443       .  S
Zr1969     O2863   2.340       .  S
Zr1969     O2885   2.339       .  S
Zr1969     O1984   2.343       .  S
Zr1970     O1974   2.337       .  S
Zr1970     O1984   2.339       .  S
Zr1971     O1973   2.337       .  S
Zr1971     O1986   2.339       .  S
Zr1972     O2871   2.436       .  S
Zr1972     O2885   2.339       .  S
Zr1972     O1974   2.334       .  S
Zr1972     O2898   2.339       .  S
Zr1972     O1984   2.341       .  S
O1973     Zr2881   2.339       .  S
O1973     Zr2884   2.339   1_545  S
C1975      C3124   1.488       .  S
C1976      C3117   1.488       .  S
C1977      C2115   1.485       .  S
C1978      C2105   1.488       .  S
C1979      C2082   1.491       .  S
C1980      C2095   1.486       .  S
C1981      C2062   1.485       .  S
C1982      C2072   1.472       .  S
H1983      O1984   0.966       .  S
H1985      O1986   0.966       .  S
O1986     Zr2880   2.338   1_545  S
O1986     Zr2884   2.339   1_545  S
O1987     Zr2023   2.451       .  S
O1987      C1998   1.296       .  A
O1988     Zr2022   2.431       .  S
O1988      C1999   1.291       .  A
O1989     Zr2451   2.438   1_554  S
O1989      C2000   1.292       .  A
O1990     Zr1995   2.434       .  S
O1990      C2001   1.292       .  A
O1991     Zr2025   2.430       .  S
O1991      C2001   1.291       .  A
O1992     Zr2024   2.446       .  S
O1992      C2000   1.295       .  A
O1993     Zr1995   2.439       .  S
O1993      C1999   1.293       .  A
O1994     Zr1995   2.429       .  S
O1994      C1998   1.290       .  A
Zr1995     O2445   2.439       .  S
Zr1995     O1996   2.335       .  S
Zr1995     O2453   2.339       .  S
Zr1995     O2005   2.343       .  S
Zr1995     O2459   2.337       .  S
O1996     Zr2022   2.336       .  S
O1996     Zr2025   2.340       .  S
O1997     Zr2451   2.338   1_554  S
O1997     Zr2479   2.340   1_554  S
O1997     Zr2024   2.340       .  S
C1998      C2648   1.489       .  S
C1999      C2641   1.484       .  S
C2000      C2135   1.492       .  S
C2001      C2145   1.484       .  S
H2002      O2003   0.966       .  S
O2003     Zr2451   2.337   1_554  S
O2003     Zr2478   2.342   1_554  S
O2003     Zr2024   2.340       .  S
H2004      O2005   0.966       .  S
O2005     Zr2023   2.340       .  S
O2005     Zr2025   2.338       .  S
O2006     Zr2022   2.439       .  S
O2006      C2029   1.292       .  A
O2007     Zr2023   2.442       .  S
O2007      C2030   1.294       .  A
O2008     Zr2024   2.439       .  S
O2008      C2031   1.292       .  A
O2009     Zr2025   2.430       .  S
O2009      C2032   1.291       .  A
O2010     Zr2025   2.441       .  S
O2010      C2033   1.292       .  A
O2011     Zr2024   2.433       .  S
O2011      C2034   1.292       .  A
O2012     Zr2482   2.433   1_554  S
O2012      C2035   1.291       .  A
O2013     Zr2026   2.427       .  S
O2013      C2036   1.290       .  A
O2014     Zr2024   2.446       .  S
O2014      C2035   1.295       .  A
O2015     Zr2025   2.439       .  S
O2015      C2036   1.293       .  A
O2016     Zr2478   2.441   1_554  S
O2016      C2031   1.293       .  A
O2017     Zr2479   2.435   1_554  S
O2017      C2034   1.293       .  A
O2018     Zr2023   2.441       .  S
O2018      C2033   1.292       .  A
O2019     Zr2022   2.448       .  S
O2019      C2032   1.295       .  A
O2020     Zr2026   2.438       .  S
O2020      C2029   1.293       .  A
O2021     Zr2026   2.432       .  S
O2021      C2030   1.291       .  A
Zr2022     O2472   2.440       .  S
Zr2022     O2459   2.342       .  S
Zr2022     O2484   2.341       .  S
Zr2022     O2040   2.340       .  S
Zr2023     O2473   2.437       .  S
Zr2023     O2453   2.340       .  S
Zr2023     O2027   2.338       .  S
Zr2023     O2494   2.345       .  S
Zr2024     O2028   2.339       .  S
Zr2024     O2038   2.339       .  S
Zr2025     O2027   2.334       .  S
Zr2025     O2040   2.341       .  S
Zr2026     O2468   2.434       .  S
Zr2026     O2027   2.339       .  S
Zr2026     O2484   2.336       .  S
Zr2026     O2040   2.339       .  S
Zr2026     O2494   2.339       .  S
O2028     Zr2478   2.341   1_554  S
O2028     Zr2482   2.335   1_554  S
C2029      C2621   1.486       .  S
C2030      C2628   1.487       .  S
C2031      C2052   1.471       .  S
C2032      C2065   1.486       .  S
C2033      C2075   1.473       .  S
C2034      C2045   1.486       .  S
C2035      C2125   1.491       .  S
C2036      C2155   1.486       .  S
H2037      O2038   0.966       .  S
O2038     Zr2479   2.345   1_554  S
O2038     Zr2482   2.338   1_554  S
H2039      O2040   0.966       .  S
C2041      C2042   1.406       .  A
C2041      C2046   1.396       .  A
C2041      H2048   1.083       .  S
C2042      C2043   1.411       .  A
C2043      C2044   1.396       .  A
C2043      F2050   1.358       .  S
C2044      C2045   1.406       .  A
C2044      H2049   1.083       .  S
C2045      C2046   1.411       .  A
C2046      F2047   1.357       .  S
C2051      C2052   1.404       .  A
C2051      C2056   1.399       .  A
C2051      H2058   1.084       .  S
C2052      C2053   1.405       .  A
C2053      C2054   1.398       .  A
C2053      F2060   1.358       .  S
C2054      C2055   1.403       .  A
C2054      H2059   1.084       .  S
C2055      C2056   1.405       .  A
C2056      F2057   1.358       .  S
C2061      C2062   1.406       .  A
C2061      C2066   1.397       .  A
C2061      H2068   1.083       .  S
C2062      C2063   1.410       .  A
C2063      C2064   1.398       .  A
C2063      F2070   1.358       .  S
C2064      C2065   1.406       .  A
C2064      H2069   1.083       .  S
C2065      C2066   1.411       .  A
C2066      F2067   1.358       .  S
C2071      C2072   1.404       .  A
C2071      C2076   1.399       .  A
C2071      H2078   1.084       .  S
C2072      C2073   1.405       .  A
C2073      C2074   1.399       .  A
C2073      F2080   1.358       .  S
C2074      C2075   1.404       .  A
C2074      H2079   1.084       .  S
C2075      C2076   1.405       .  A
C2076      F2077   1.358       .  S
C2081      C2082   1.407       .  A
C2081      C2086   1.400       .  A
C2081      H2088   1.083       .  S
C2082      C2083   1.411       .  A
C2083      C2084   1.400       .  A
C2083      F2090   1.357       .  S
C2084      C2085   1.407       .  A
C2084      H2089   1.083       .  S
C2085      C2086   1.412       .  A
C2086      F2087   1.358       .  S
C2091      C2092   1.406       .  A
C2091      C2096   1.395       .  A
C2091      H2098   1.083       .  S
C2092      C2093   1.411       .  A
C2093      C2094   1.397       .  A
C2093      F2100   1.358       .  S
C2094      C2095   1.407       .  A
C2094      H2099   1.083       .  S
C2095      C2096   1.410       .  A
C2096      F2097   1.357       .  S
C2101      C2102   1.406       .  A
C2101      C2106   1.397       .  A
C2101      H2108   1.083       .  S
C2102      C2103   1.412       .  A
C2103      C2104   1.397       .  A
C2103      F2110   1.358       .  S
C2104      C2105   1.407       .  A
C2104      H2109   1.083       .  S
C2105      C2106   1.411       .  A
C2106      F2107   1.357       .  S
C2111      C2112   1.405       .  A
C2111      C2116   1.395       .  A
C2111      H2118   1.083       .  S
C2112      C2113   1.412       .  A
C2113      C2114   1.397       .  A
C2113      F2120   1.358       .  S
C2114      C2115   1.406       .  A
C2114      H2119   1.083       .  S
C2115      C2116   1.411       .  A
C2116      F2117   1.357       .  S
C2121      C2122   1.407       .  A
C2121      C2126   1.399       .  A
C2121      H2128   1.083       .  S
C2122      C2123   1.412       .  A
C2123      C2124   1.398       .  A
C2123      F2130   1.357       .  S
C2124      C2125   1.406       .  A
C2124      H2129   1.083       .  S
C2125      C2126   1.412       .  A
C2126      F2127   1.358       .  S
C2131      C2132   1.407       .  A
C2131      C2136   1.399       .  A
C2131      H2138   1.083       .  S
C2132      C2133   1.412       .  A
C2133      C2134   1.400       .  A
C2133      F2140   1.357       .  S
C2134      C2135   1.407       .  A
C2134      H2139   1.083       .  S
C2135      C2136   1.412       .  A
C2136      F2137   1.358       .  S
C2141      C2142   1.406       .  A
C2141      C2146   1.395       .  A
C2141      H2148   1.083       .  S
C2142      C2143   1.410       .  A
C2143      C2144   1.395       .  A
C2143      F2150   1.358       .  S
C2144      C2145   1.406       .  A
C2144      H2149   1.083       .  S
C2145      C2146   1.410       .  A
C2146      F2147   1.358       .  S
C2151      C2152   1.406       .  A
C2151      C2156   1.396       .  A
C2151      H2158   1.083       .  S
C2152      C2153   1.412       .  A
C2153      C2154   1.396       .  A
C2153      F2160   1.358       .  S
C2154      C2155   1.406       .  A
C2154      H2159   1.083       .  S
C2155      C2156   1.411       .  A
C2156      F2157   1.358       .  S
C2161      C2618   1.406       .  A
C2161      C2166   1.397       .  A
C2161      H2168   1.083       .  S
C2162      C2617   1.406   1_554  A
C2162      C2163   1.409       .  A
C2163      C2164   1.398       .  A
C2163      F2170   1.358       .  S
C2164      C2165   1.407       .  A
C2164      H2169   1.083       .  S
C2165      C2485   1.486   1_554  S
C2165      C2622   1.410   1_554  A
C2166      C2621   1.410       .  A
C2166      F2167   1.358       .  S
C2171      C2628   1.406       .  A
C2171      C2176   1.397       .  A
C2171      H2178   1.083       .  S
C2172      C2486   1.487       .  S
C2172      C2627   1.406       .  A
C2172      C2173   1.411   1_556  A
C2173      C2174   1.397       .  A
C2173      F2180   1.358       .  S
C2174      C2175   1.406   1_554  A
C2174      H2179   1.083       .  S
C2175      C2632   1.411       .  A
C2176      C2631   1.411       .  A
C2176      F2177   1.358       .  S
C2181      C2182   1.406   1_554  A
C2181      C2186   1.398       .  A
C2181      H2188   1.083       .  S
C2182      C2639   1.410       .  A
C2183      C2638   1.410       .  A
C2183      C2184   1.396       .  A
C2183      F2190   1.357       .  S
C2184      C2641   1.405       .  A
C2184      H2189   1.083       .  S
C2185      C2455   1.484   1_554  S
C2185      C2640   1.405   1_554  A
C2185      C2186   1.410       .  A
C2186      F2187   1.358       .  S
C2191      C2192   1.405       .  A
C2191      C2196   1.397       .  A
C2191      H2198   1.083       .  S
C2192      C2454   1.489       .  S
C2192      C2649   1.413       .  A
C2193      C2648   1.413       .  A
C2193      C2194   1.398       .  A
C2193      F2200   1.358       .  S
C2194      C2651   1.406       .  A
C2194      H2199   1.083       .  S
C2195      C2650   1.406       .  A
C2195      C2196   1.412       .  A
C2196      F2197   1.357       .  S
C2201      C2202   1.407       .  A
C2201      C2206   1.397       .  A
C2201      H2208   1.083       .  S
C2202      C3115   1.411       .  A
C2203      C3114   1.411       .  A
C2203      C2204   1.397       .  A
C2203      F2210   1.358       .  S
C2204      C3117   1.407       .  A
C2204      H2209   1.083       .  S
C2205      C2888   1.488       .  S
C2205      C3116   1.407       .  A
C2205      C2206   1.410       .  A
C2206      F2207   1.357       .  S
C2211      C2212   1.406       .  A
C2211      C2216   1.397       .  A
C2211      H2218   1.083       .  S
C2212      C2887   1.489       .  S
C2212      C3125   1.412       .  A
C2213      C3124   1.412       .  A
C2213      C2214   1.399       .  A
C2213      F2220   1.358       .  S
C2214      C3127   1.407       .  A
C2214      H2219   1.083       .  S
C2215      C3126   1.407       .  A
C2215      C2216   1.411       .  A
C2216      F2217   1.357       .  S
C2221      C3134   1.405       .  A
C2221      C2226   1.397       .  A
C2221      H2228   1.083       .  S
C2222      C3133   1.405       .  A
C2222      C2223   1.412   1_545  A
C2223      C2224   1.398       .  A
C2223      F2230   1.358       .  S
C2224      C2225   1.406   1_565  A
C2224      H2229   1.083       .  S
C2225      C2857   1.486       .  S
C2225      C3138   1.410       .  A
C2226      C3137   1.410       .  A
C2226      F2227   1.358       .  S
C2231      C3144   1.406       .  A
C2231      C2236   1.398       .  A
C2231      H2238   1.083       .  S
C2232      C2856   1.489       .  S
C2232      C3143   1.406       .  A
C2232      C2233   1.411       .  A
C2233      C2234   1.398       .  A
C2233      F2240   1.358       .  S
C2234      C2235   1.407       .  A
C2234      H2239   1.083       .  S
C2235      C3148   1.411       .  A
C2236      C3147   1.411       .  A
C2236      F2237   1.357       .  S
C2241      C2246   1.398       .  A
C2241      H2248   1.083       .  S
C2242      C2243   1.408       .  A
C2243      C2244   1.397       .  A
C2243      F2250   1.358       .  S
C2244      C2245   1.405       .  A
C2244      H2249   1.083       .  S
C2246      F2247   1.358       .  S
C2251      C2256   1.396       .  A
C2251      H2258   1.084       .  S
C2252      C2253   1.405       .  A
C2253      C2254   1.394       .  A
C2253      F2260   1.358       .  S
C2254      C2255   1.403       .  A
C2254      H2259   1.084       .  S
C2256      F2257   1.357       .  S
C2261      C2262   1.406       .  A
C2261      C2266   1.396       .  A
C2261      H2268   1.083       .  S
C2263      C2264   1.396       .  A
C2263      F2270   1.358       .  S
C2264      H2269   1.083       .  S
C2265      C2266   1.411       .  A
C2266      F2267   1.358       .  S
C2271      C2272   1.406       .  A
C2271      C2276   1.397       .  A
C2271      H2278   1.083       .  S
C2273      C2274   1.396       .  A
C2273      F2280   1.358       .  S
C2274      H2279   1.083       .  S
C2275      C2276   1.411       .  A
C2276      F2277   1.358       .  S
O2281     Zr2317   2.436   1_545  S
O2281      C2292   1.293       .  A
O2282     Zr2316   2.442   1_545  S
O2282      C2293   1.293       .  A
O2283     Zr2289   2.442       .  S
O2283      C2294   1.294       .  A
O2284      C2295   1.293       .  A
O2285     Zr2319   2.434   1_545  S
O2285      C2295   1.292       .  A
O2286     Zr2318   2.431       .  S
O2286      C2294   1.291       .  A
O2287      C2293   1.292       .  A
O2288     Zr2289   2.435       .  S
O2288      C2292   1.292       .  A
Zr2289     O2291   2.336       .  S
O2291     Zr2317   2.336   1_545  S
O2291     Zr2318   2.339       .  S
C2292      C2728   1.487       .  S
C2293      C2698   1.481       .  S
C2294      C2651   1.488       .  S
C2295      C2631   1.487       .  S
H2296      O2297   0.966       .  S
O2297     Zr2316   2.337   1_545  S
H2298      O2299   0.966       .  S
O2299     Zr2319   2.344   1_545  S
O2300     Zr3228   2.429       .  S
O2300      C2323   1.291       .  A
O2301     Zr3229   2.437       .  S
O2301      C2324   1.293       .  A
O2302      C2325   1.292       .  A
O2303      C2326   1.294       .  A
O2304     Zr2319   2.439       .  S
O2304      C2327   1.294       .  A
O2305     Zr2318   2.430       .  S
O2305      C2328   1.291       .  A
O2306     Zr2320   2.436       .  S
O2306      C2329   1.292       .  A
O2307      C2330   1.293       .  A
O2308     Zr3230   2.438       .  S
O2308      C2329   1.293       .  A
O2309     Zr3231   2.435       .  S
O2309      C2330   1.292       .  A
O2310     Zr2316   2.440       .  S
O2310      C2325   1.293       .  A
O2311     Zr2317   2.445   1_545  S
O2311      C2328   1.294       .  A
O2312      C2327   1.292       .  A
O2313      C2326   1.291       .  A
O2314      C2323   1.291       .  A
O2315     Zr2320   2.435       .  S
O2315      C2324   1.292       .  A
Zr2316     O3212   2.429       .  S
Zr2316     O3234   2.338       .  S
Zr2317     O3213   2.437       .  S
Zr2317     O3244   2.340       .  S
Zr2318     O3220   2.438   1_545  S
Zr2318     O2778   2.332   1_545  S
Zr2318     O3244   2.342   1_545  S
Zr2319     O3221   2.435       .  S
Zr2319     O3233   2.338       .  S
Zr2319     O2790   2.337       .  S
Zr2320     O2332   2.338       .  S
O2321     Zr3231   2.338       .  S
O2322     Zr3228   2.338       .  S
O2322     Zr2774   2.332       .  S
C2323      C2711   1.467       .  S
C2324      C2721   1.487       .  S
C2325      C2671   1.489       .  S
C2326      C2658   1.489       .  S
C2327      C2691   1.488       .  S
C2328      C2678   1.487       .  S
C2329      C2638   1.484       .  S
C2330      C2618   1.485       .  S
H2331      O2332   0.966       .  S
O2332     Zr3229   2.340       .  S
O2332     Zr3230   2.342       .  S
H2333      O2334   0.966       .  S
O2334     Zr2775   2.337       .  S
O2335     Zr2371   2.437       .  S
O2335      C2346   1.293       .  A
O2336     Zr2370   2.433       .  S
O2336      C2347   1.291       .  A
O2337     Zr2343   2.446       .  S
O2337      C2348   1.295       .  A
O2338      C2349   1.293       .  A
O2339     Zr2373   2.445       .  S
O2339      C2349   1.294       .  A
O2340     Zr2372   2.425       .  S
O2340      C2348   1.290       .  A
O2341     Zr2343   2.440       .  S
O2341      C2347   1.293       .  A
O2342     Zr2343   2.433       .  S
O2342      C2346   1.292       .  A
Zr2343     O2345   2.339       .  S
Zr2343     O2351   2.338       .  S
O2344     Zr2373   2.337       .  S
O2345     Zr2371   2.339       .  S
O2345     Zr2372   2.334       .  S
C2346      C2731   1.487       .  S
C2347      C2701   1.481       .  S
C2348      C2558   1.488       .  S
C2349      C2541   1.492       .  S
H2350      O2351   0.966       .  S
O2351     Zr2370   2.339       .  S
O2351     Zr2372   2.339       .  S
H2352      O2353   0.966       .  S
O2353     Zr2373   2.337       .  S
O2354     Zr2370   2.431       .  S
O2354      C2377   1.291       .  A
O2355     Zr2371   2.439       .  S
O2355      C2378   1.293       .  A
O2356     Zr2372   2.432       .  S
O2356      C2379   1.292       .  A
O2357     Zr2373   2.427       .  S
O2357      C2380   1.290       .  A
O2358     Zr2373   2.436       .  S
O2358      C2381   1.292       .  A
O2359     Zr2372   2.439       .  S
O2359      C2382   1.292       .  A
O2360     Zr2374   2.441       .  S
O2360      C2383   1.294       .  A
O2361      C2384   1.291       .  A
O2362     Zr2372   2.422       .  S
O2362      C2383   1.289       .  A
O2363     Zr2373   2.437       .  S
O2363      C2384   1.293       .  A
O2364     Zr2370   2.432       .  S
O2364      C2379   1.291       .  A
O2365     Zr2371   2.447       .  S
O2365      C2382   1.295       .  A
O2366      C2381   1.295       .  A
O2367      C2380   1.294       .  A
O2368     Zr2374   2.429       .  S
O2368      C2377   1.291       .  A
O2369     Zr2374   2.430       .  S
O2369      C2378   1.291       .  A
Zr2370     O2376   2.337       .  S
Zr2371     O2386   2.341       .  S
Zr2372     O2376   2.336       .  S
Zr2372     O2386   2.338       .  S
Zr2373     O2375   2.337       .  S
Zr2373     O2388   2.342       .  S
Zr2374     O2376   2.334       .  S
Zr2374     O2386   2.338       .  S
C2377      C2708   1.467       .  S
C2378      C2718   1.486       .  S
C2379      C2598   1.484       .  S
C2380      C2608   1.485       .  S
C2381      C2578   1.492       .  S
C2382      C2588   1.493       .  S
C2383      C2568   1.485       .  S
C2384      C2548   1.485       .  S
H2385      O2386   0.966       .  S
H2387      O2388   0.966       .  S
O2389     Zr2425   2.441       .  S
O2389      C2400   1.294       .  A
O2390     Zr2424   2.432       .  S
O2390      C2401   1.291       .  A
O2391     Zr2397   2.438       .  S
O2391      C2402   1.292       .  A
O2392     Zr3309   2.427   1_545  S
O2392      C2403   1.290       .  A
O2393     Zr2427   2.442       .  S
O2393      C2403   1.294       .  A
O2394     Zr2426   2.438       .  S
O2394      C2402   1.292       .  A
O2395     Zr2397   2.438       .  S
O2395      C2401   1.293       .  A
O2396     Zr2397   2.433       .  S
O2396      C2400   1.291       .  A
Zr2397     O3304   2.427       .  S
Zr2397     O3310   2.337       .  S
Zr2397     O2399   2.336       .  S
Zr2397     O3319   2.346       .  S
Zr2397     O2405   2.337       .  S
O2398     Zr3309   2.337   1_545  S
O2398     Zr3336   2.331   1_545  S
O2398     Zr2427   2.338       .  S
O2399     Zr2425   2.339       .  S
O2399     Zr2426   2.337       .  S
C2400      C3600   1.488       .  S
C2401      C3593   1.486       .  S
C2402      C2511   1.470       .  S
C2403      C2498   1.486       .  S
H2404      O2405   0.966       .  S
O2405     Zr2424   2.340       .  S
O2405     Zr2426   2.343       .  S
H2406      O2407   0.966       .  S
O2407     Zr3309   2.346   1_545  S
O2407     Zr3337   2.340       .  S
O2407     Zr2427   2.345       .  S
O2408     Zr2424   2.429       .  S
O2408      C2431   1.290       .  A
O2409     Zr2425   2.433       .  S
O2409      C2432   1.292       .  A
O2410     Zr2426   2.436       .  S
O2410      C2433   1.293       .  A
O2411     Zr2427   2.437       .  S
O2411      C2434   1.293       .  A
O2412     Zr2427   2.440       .  S
O2412      C2435   1.293       .  A
O2413     Zr2426   2.434       .  S
O2413      C2436   1.292       .  A
O2414     Zr2428   2.435       .  S
O2414      C2437   1.292       .  A
O2415     Zr3340   2.435   1_545  S
O2415      C2438   1.291       .  A
O2416     Zr2426   2.437       .  S
O2416      C2437   1.293       .  A
O2417     Zr2427   2.444       .  S
O2417      C2438   1.293       .  A
O2418     Zr2424   2.431       .  S
O2418      C2433   1.291       .  A
O2419     Zr2425   2.433       .  S
O2419      C2436   1.292       .  A
O2420     Zr3337   2.443       .  S
O2420      C2435   1.294       .  A
O2421     Zr3336   2.439   1_545  S
O2421      C2434   1.292       .  A
O2422     Zr2428   2.444       .  S
O2422      C2431   1.294       .  A
O2423     Zr2428   2.440       .  S
O2423      C2432   1.293       .  A
Zr2424     O3333   2.439       .  S
Zr2424     O3310   2.331       .  S
Zr2424     O2430   2.335       .  S
Zr2424     O3354   2.337       .  S
Zr2425     O3332   2.444       .  S
Zr2425     O3319   2.340       .  S
Zr2425     O3341   2.338       .  S
Zr2425     O2440   2.343       .  S
Zr2426     O2430   2.336       .  S
Zr2426     O2440   2.339       .  S
Zr2427     O2429   2.337       .  S
Zr2427     O2442   2.339       .  S
Zr2428     O3327   2.435       .  S
Zr2428     O3341   2.339       .  S
Zr2428     O2430   2.334       .  S
Zr2428     O3354   2.339       .  S
Zr2428     O2440   2.340       .  S
O2429     Zr3337   2.338       .  S
O2429     Zr3340   2.339   1_545  S
C2431      C3580   1.488       .  S
C2432      C3573   1.488       .  S
C2433      C2571   1.485       .  S
C2434      C2561   1.489       .  S
C2435      C2538   1.491       .  S
C2436      C2551   1.485       .  S
C2437      C2518   1.485       .  S
C2438      C2528   1.472       .  S
H2439      O2440   0.966       .  S
H2441      O2442   0.966       .  S
O2442     Zr3336   2.337   1_545  S
O2442     Zr3340   2.339   1_545  S
O2443     Zr2479   2.451       .  S
O2443      C2454   1.296       .  A
O2444     Zr2478   2.432       .  S
O2444      C2455   1.291       .  A
O2445      C2456   1.292       .  A
O2446     Zr2451   2.432       .  S
O2446      C2457   1.292       .  A
O2447     Zr2481   2.430       .  S
O2447      C2457   1.291       .  A
O2448     Zr2480   2.446       .  S
O2448      C2456   1.294       .  A
O2449     Zr2451   2.438       .  S
O2449      C2455   1.293       .  A
O2450     Zr2451   2.429       .  S
O2450      C2454   1.290       .  A
Zr2451     O2452   2.335       .  S
Zr2451     O2461   2.343       .  S
O2452     Zr2478   2.336       .  S
O2452     Zr2481   2.340       .  S
O2453     Zr2480   2.340       .  S
C2456      C2591   1.492       .  S
C2457      C2601   1.484       .  S
H2458      O2459   0.966       .  S
O2459     Zr2480   2.341       .  S
H2460      O2461   0.966       .  S
O2461     Zr2479   2.339       .  S
O2461     Zr2481   2.337       .  S
O2462     Zr2478   2.438       .  S
O2462      C2485   1.292       .  A
O2463     Zr2479   2.442       .  S
O2463      C2486   1.294       .  A
O2464     Zr2480   2.438       .  S
O2464      C2487   1.292       .  A
O2465     Zr2481   2.429       .  S
O2465      C2488   1.291       .  A
O2466     Zr2481   2.441       .  S
O2466      C2489   1.292       .  A
O2467     Zr2480   2.433       .  S
O2467      C2490   1.291       .  A
O2468      C2491   1.291       .  A
O2469     Zr2482   2.425       .  S
O2469      C2492   1.290       .  A
O2470     Zr2480   2.447       .  S
O2470      C2491   1.295       .  A
O2471     Zr2481   2.437       .  S
O2471      C2492   1.293       .  A
O2472      C2487   1.292       .  A
O2473      C2490   1.293       .  A
O2474     Zr2479   2.439       .  S
O2474      C2489   1.292       .  A
O2475     Zr2478   2.448       .  S
O2475      C2488   1.295       .  A
O2476     Zr2482   2.439       .  S
O2476      C2485   1.293       .  A
O2477     Zr2482   2.433       .  S
O2477      C2486   1.291       .  A
Zr2478     O2496   2.340       .  S
Zr2479     O2483   2.338       .  S
Zr2480     O2484   2.339       .  S
Zr2480     O2494   2.339       .  S
Zr2481     O2483   2.334       .  S
Zr2481     O2496   2.341       .  S
Zr2482     O2483   2.339       .  S
Zr2482     O2496   2.339       .  S
C2487      C2508   1.470       .  S
C2488      C2521   1.486       .  S
C2489      C2531   1.473       .  S
C2490      C2501   1.486       .  S
C2491      C2581   1.491       .  S
C2492      C2611   1.484       .  S
H2493      O2494   0.966       .  S
H2495      O2496   0.966       .  S
C2497      C2498   1.405       .  A
C2497      C2502   1.396       .  A
C2497      H2504   1.083       .  S
C2498      C2499   1.411       .  A
C2499      C2500   1.397       .  A
C2499      F2506   1.358       .  S
C2500      C2501   1.406       .  A
C2500      H2505   1.083       .  S
C2501      C2502   1.411       .  A
C2502      F2503   1.357       .  S
C2507      C2508   1.403       .  A
C2507      C2512   1.398       .  A
C2507      H2514   1.084       .  S
C2508      C2509   1.405       .  A
C2509      C2510   1.398       .  A
C2509      F2516   1.358       .  S
C2510      C2511   1.403       .  A
C2510      H2515   1.084       .  S
C2511      C2512   1.405       .  A
C2512      F2513   1.358       .  S
C2517      C2518   1.406       .  A
C2517      C2522   1.397       .  A
C2517      H2524   1.083       .  S
C2518      C2519   1.410       .  A
C2519      C2520   1.398       .  A
C2519      F2526   1.358       .  S
C2520      C2521   1.406       .  A
C2520      H2525   1.083       .  S
C2521      C2522   1.411       .  A
C2522      F2523   1.358       .  S
C2527      C2528   1.404       .  A
C2527      C2532   1.399       .  A
C2527      H2534   1.084       .  S
C2528      C2529   1.405       .  A
C2529      C2530   1.399       .  A
C2529      F2536   1.358       .  S
C2530      C2531   1.404       .  A
C2530      H2535   1.084       .  S
C2531      C2532   1.406       .  A
C2532      F2533   1.358       .  S
C2537      C2538   1.407       .  A
C2537      C2542   1.400       .  A
C2537      H2544   1.083       .  S
C2538      C2539   1.411       .  A
C2539      C2540   1.400       .  A
C2539      F2546   1.358       .  S
C2540      C2541   1.407       .  A
C2540      H2545   1.083       .  S
C2541      C2542   1.412       .  A
C2542      F2543   1.358       .  S
C2547      C2548   1.406       .  A
C2547      C2552   1.395       .  A
C2547      H2554   1.083       .  S
C2548      C2549   1.411       .  A
C2549      C2550   1.397       .  A
C2549      F2556   1.358       .  S
C2550      C2551   1.407       .  A
C2550      H2555   1.083       .  S
C2551      C2552   1.410       .  A
C2552      F2553   1.357       .  S
C2557      C2558   1.406       .  A
C2557      C2562   1.397       .  A
C2557      H2564   1.083       .  S
C2558      C2559   1.412       .  A
C2559      C2560   1.397       .  A
C2559      F2566   1.358       .  S
C2560      C2561   1.407       .  A
C2560      H2565   1.083       .  S
C2561      C2562   1.411       .  A
C2562      F2563   1.357       .  S
C2567      C2568   1.405       .  A
C2567      C2572   1.395       .  A
C2567      H2574   1.083       .  S
C2568      C2569   1.412       .  A
C2569      C2570   1.397       .  A
C2569      F2576   1.358       .  S
C2570      C2571   1.406       .  A
C2570      H2575   1.083       .  S
C2571      C2572   1.411       .  A
C2572      F2573   1.357       .  S
C2577      C2578   1.407       .  A
C2577      C2582   1.399       .  A
C2577      H2584   1.083       .  S
C2578      C2579   1.412       .  A
C2579      C2580   1.398       .  A
C2579      F2586   1.357       .  S
C2580      C2581   1.406       .  A
C2580      H2585   1.083       .  S
C2581      C2582   1.412       .  A
C2582      F2583   1.358       .  S
C2587      C2588   1.407       .  A
C2587      C2592   1.399       .  A
C2587      H2594   1.083       .  S
C2588      C2589   1.412       .  A
C2589      C2590   1.400       .  A
C2589      F2596   1.357       .  S
C2590      C2591   1.407       .  A
C2590      H2595   1.083       .  S
C2591      C2592   1.412       .  A
C2592      F2593   1.358       .  S
C2597      C2598   1.406       .  A
C2597      C2602   1.395       .  A
C2597      H2604   1.083       .  S
C2598      C2599   1.410       .  A
C2599      C2600   1.395       .  A
C2599      F2606   1.358       .  S
C2600      C2601   1.406       .  A
C2600      H2605   1.083       .  S
C2601      C2602   1.410       .  A
C2602      F2603   1.358       .  S
C2607      C2608   1.405       .  A
C2607      C2612   1.395       .  A
C2607      H2614   1.083       .  S
C2608      C2609   1.412       .  A
C2609      C2610   1.396       .  A
C2609      F2616   1.358       .  S
C2610      C2611   1.405       .  A
C2610      H2615   1.083       .  S
C2611      C2612   1.411       .  A
C2612      F2613   1.358       .  S
C2617      C2622   1.397       .  A
C2617      H2624   1.083       .  S
C2618      C2619   1.409       .  A
C2619      C2620   1.398       .  A
C2619      F2626   1.358       .  S
C2620      C2621   1.407       .  A
C2620      H2625   1.083       .  S
C2622      F2623   1.358       .  S
C2627      C2632   1.398       .  A
C2627      H2634   1.083       .  S
C2628      C2629   1.411       .  A
C2629      C2630   1.397       .  A
C2629      F2636   1.358       .  S
C2630      C2631   1.406       .  A
C2630      H2635   1.083       .  S
C2632      F2633   1.358       .  S
C2637      C2638   1.406       .  A
C2637      C2642   1.398       .  A
C2637      H2644   1.083       .  S
C2639      C2640   1.396       .  A
C2639      F2646   1.357       .  S
C2640      H2645   1.083       .  S
C2641      C2642   1.410       .  A
C2642      F2643   1.358       .  S
C2647      C2648   1.405       .  A
C2647      C2652   1.397       .  A
C2647      H2654   1.083       .  S
C2649      C2650   1.398       .  A
C2649      F2656   1.358       .  S
C2650      H2655   1.083       .  S
C2651      C2652   1.411       .  A
C2652      F2653   1.357       .  S
C2657      C2658   1.407       .  A
C2657      C2662   1.397       .  A
C2657      H2664   1.083       .  S
C2658      C3571   1.411       .  A
C2659      C3570   1.411       .  A
C2659      C2660   1.397       .  A
C2659      F2666   1.358       .  S
C2660      C3573   1.407       .  A
C2660      H2665   1.083       .  S
C2661      C3344   1.488       .  S
C2661      C3572   1.407       .  A
C2661      C2662   1.410       .  A
C2662      F2663   1.357       .  S
C2667      C2668   1.405       .  A
C2667      C2672   1.397       .  A
C2667      H2674   1.083       .  S
C2668      C3343   1.488       .  S
C2668      C3581   1.412   1_565  A
C2669      C3580   1.412       .  A
C2669      C2670   1.398       .  A
C2669      F2676   1.358       .  S
C2670      C3583   1.407       .  A
C2670      H2675   1.083       .  S
C2671      C3582   1.407   1_565  A
C2671      C2672   1.411       .  A
C2672      F2673   1.357       .  S
C2677      C3590   1.406       .  A
C2677      C2682   1.397       .  A
C2677      H2684   1.083       .  S
C2678      C3589   1.406       .  A
C2678      C2679   1.412   1_545  A
C2679      C2680   1.397       .  A
C2679      F2686   1.358       .  S
C2680      C2681   1.406   1_565  A
C2680      H2685   1.083       .  S
C2681      C3313   1.486       .  S
C2681      C3594   1.410       .  A
C2682      C3593   1.411       .  A
C2682      F2683   1.358       .  S
C2687      C3600   1.406       .  A
C2687      C2692   1.397       .  A
C2687      H2694   1.083       .  S
C2688      C3312   1.488       .  S
C2688      C3599   1.406   1_565  A
C2688      C2689   1.411       .  A
C2689      C2690   1.397       .  A
C2689      F2696   1.358       .  S
C2690      C2691   1.407       .  A
C2690      H2695   1.083       .  S
C2691      C3604   1.411   1_565  A
C2692      C3603   1.411       .  A
C2692      F2693   1.358       .  S
C2697      C2702   1.398       .  A
C2697      H2704   1.083       .  S
C2698      C2699   1.408       .  A
C2699      C2700   1.397       .  A
C2699      F2706   1.358       .  S
C2700      C2701   1.405       .  A
C2700      H2705   1.083       .  S
C2702      F2703   1.358       .  S
C2707      C2712   1.395       .  A
C2707      H2714   1.084       .  S
C2708      C2709   1.405       .  A
C2709      C2710   1.394       .  A
C2709      F2716   1.358       .  S
C2710      C2711   1.403       .  A
C2710      H2715   1.084       .  S
C2712      F2713   1.357       .  S
C2717      C2718   1.406       .  A
C2717      C2722   1.396       .  A
C2717      H2724   1.083       .  S
C2719      C2720   1.397       .  A
C2719      F2726   1.358       .  S
C2720      H2725   1.083       .  S
C2721      C2722   1.411       .  A
C2722      F2723   1.357       .  S
C2727      C2728   1.407       .  A
C2727      C2732   1.397       .  A
C2727      H2734   1.083       .  S
C2729      C2730   1.396       .  A
C2729      F2736   1.358       .  S
C2730      H2735   1.083       .  S
C2731      C2732   1.411       .  A
C2732      F2733   1.358       .  S
O2737     Zr2773   2.436       .  S
O2737      C2748   1.293       .  A
O2738     Zr2772   2.442       .  S
O2738      C2749   1.293       .  A
O2739     Zr2745   2.442       .  S
O2739      C2750   1.294   1_554  A
O2740      C2751   1.293       .  A
O2741     Zr2775   2.434       .  S
O2741      C2751   1.292       .  A
O2742     Zr2774   2.432       .  S
O2742      C2750   1.291       .  A
O2743     Zr3201   2.431       .  S
O2743      C2749   1.292       .  A
O2744     Zr2745   2.435       .  S
O2744      C2748   1.292       .  A
Zr2745     O3199   2.431   1_554  S
Zr2745     O2747   2.336       .  S
Zr2745     O3209   2.342   1_554  S
O2746     Zr3231   2.336       .  S
O2747     Zr2773   2.336       .  S
O2747     Zr2774   2.339   1_554  S
C2748      C3184   1.487       .  S
C2749      C3154   1.482       .  S
C2750      C3107   1.488       .  S
C2751      C3087   1.487       .  S
H2752      O2753   0.966       .  S
O2753     Zr3201   2.342       .  S
O2753     Zr2772   2.337       .  S
O2753     Zr3230   2.339       .  S
H2754      O2755   0.966       .  S
O2755     Zr2775   2.344   1_554  S
O2756      C2779   1.291       .  A
O2757      C2780   1.293       .  A
O2758     Zr3230   2.437       .  S
O2758      C2781   1.292       .  A
O2759     Zr3231   2.444       .  S
O2759      C2782   1.294       .  A
O2760     Zr2775   2.440   1_554  S
O2760      C2783   1.294       .  A
O2761     Zr2774   2.429   1_554  S
O2761      C2784   1.291       .  A
O2762     Zr2776   2.436   1_554  S
O2762      C2785   1.292   1_554  A
O2763      C2786   1.293       .  A
O2764      C2785   1.293       .  A
O2765      C2786   1.292   1_556  A
O2766     Zr2772   2.440       .  S
O2766      C2781   1.293       .  A
O2767     Zr2773   2.446       .  S
O2767      C2784   1.295       .  A
O2768      C2783   1.292       .  A
O2769      C2782   1.291       .  A
O2770     Zr3232   2.429       .  S
O2770      C2779   1.291       .  A
O2771     Zr2776   2.433   1_554  S
O2771      C2780   1.291       .  A
Zr2774     O3214   2.436       .  S
Zr2774     O3209   2.339       .  S
Zr2775     O3215   2.444       .  S
Zr2775     O3202   2.337       .  S
Zr2776     O3226   2.428       .  S
Zr2776     O3234   2.338       .  S
Zr2776     O2788   2.338   1_556  S
O2778     Zr3232   2.338       .  S
C2779      C3167   1.469       .  S
C2780      C3177   1.486       .  S
C2781      C3127   1.490       .  S
C2782      C3114   1.489       .  S
C2783      C3147   1.489       .  S
C2784      C3134   1.486       .  S
C2785      C3094   1.485       .  S
C2786      C3074   1.485       .  S
H2787      O2788   0.966       .  S
H2789      O2790   0.966       .  S
O2791     Zr2827   2.437       .  S
O2791      C2802   1.293       .  A
O2792     Zr2826   2.431       .  S
O2792      C2803   1.291       .  A
O2793     Zr2799   2.445       .  S
O2793      C2804   1.294       .  A
O2794      C2805   1.293       .  A
O2795     Zr2829   2.446       .  S
O2795      C2805   1.294       .  A
O2796     Zr2828   2.425       .  S
O2796      C2804   1.290       .  A
O2797     Zr2799   2.441       .  S
O2797      C2803   1.294       .  A
O2798     Zr2799   2.434       .  S
O2798      C2802   1.292       .  A
Zr2799     O2801   2.339       .  S
Zr2799     O2807   2.339       .  S
O2800     Zr2829   2.336       .  S
O2801     Zr2827   2.339       .  S
O2801     Zr2828   2.334       .  S
C2802      C3187   1.487       .  S
C2803      C3157   1.482       .  S
C2804      C3014   1.488       .  S
C2805      C2997   1.492       .  S
H2806      O2807   0.966       .  S
O2807     Zr2826   2.340       .  S
O2807     Zr2828   2.339       .  S
H2808      O2809   0.966       .  S
O2809     Zr2829   2.338       .  S
O2810     Zr2826   2.431       .  S
O2810      C2833   1.291       .  A
O2811     Zr2827   2.438       .  S
O2811      C2834   1.293       .  A
O2812     Zr2828   2.432       .  S
O2812      C2835   1.292       .  A
O2813     Zr2829   2.429       .  S
O2813      C2836   1.290       .  A
O2814     Zr2829   2.437       .  S
O2814      C2837   1.292       .  A
O2815     Zr2828   2.439       .  S
O2815      C2838   1.292       .  A
O2816     Zr2830   2.442       .  S
O2816      C2839   1.294       .  A
O2817      C2840   1.291       .  A
O2818     Zr2828   2.422       .  S
O2818      C2839   1.289       .  A
O2819     Zr2829   2.437       .  S
O2819      C2840   1.293       .  A
O2820     Zr2826   2.432       .  S
O2820      C2835   1.291       .  A
O2821     Zr2827   2.447       .  S
O2821      C2838   1.295       .  A
O2822      C2837   1.294       .  A
O2823      C2836   1.294       .  A
O2824     Zr2830   2.432       .  S
O2824      C2833   1.291       .  A
O2825     Zr2830   2.431       .  S
O2825      C2834   1.291       .  A
Zr2826     O2832   2.337       .  S
Zr2827     O2842   2.342       .  S
Zr2828     O2832   2.336       .  S
Zr2828     O2842   2.338       .  S
Zr2829     O2831   2.337       .  S
Zr2829     O2844   2.342       .  S
Zr2830     O2832   2.333       .  S
Zr2830     O2842   2.339       .  S
C2833      C3164   1.469       .  S
C2834      C3174   1.486       .  S
C2835      C3054   1.484       .  S
C2836      C3064   1.486       .  S
C2837      C3034   1.491       .  S
C2838      C3044   1.493       .  S
C2839      C3024   1.484       .  S
C2840      C3004   1.486       .  S
H2841      O2842   0.966       .  S
H2843      O2844   0.966       .  S
O2845     Zr2881   2.443   1_565  S
O2845      C2856   1.294       .  A
O2846     Zr2880   2.433   1_545  S
O2846      C2857   1.291       .  A
O2847     Zr2853   2.437       .  S
O2847      C2858   1.292       .  A
O2848      C2859   1.291       .  A
O2849     Zr2883   2.441       .  S
O2849      C2859   1.294       .  A
O2850     Zr2882   2.440       .  S
O2850      C2858   1.292       .  A
O2851     Zr2853   2.438   1_545  S
O2851      C2857   1.293       .  A
O2852     Zr2853   2.433       .  S
O2852      C2856   1.291       .  A
Zr2853     O2855   2.336       .  S
Zr2853     O2861   2.337       .  S
O2854     Zr2883   2.339       .  S
O2855     Zr2881   2.339   1_565  S
O2855     Zr2882   2.336       .  S
C2858      C2967   1.471       .  S
C2859      C2954   1.486       .  S
H2860      O2861   0.966       .  S
O2861     Zr2880   2.340       .  S
O2861     Zr2882   2.343       .  S
H2862      O2863   0.966       .  S
O2863     Zr2883   2.345       .  S
O2864     Zr2880   2.430       .  S
O2864      C2887   1.291       .  A
O2865     Zr2881   2.435       .  S
O2865      C2888   1.292   1_545  A
O2866     Zr2882   2.435       .  S
O2866      C2889   1.292       .  A
O2867     Zr2883   2.437       .  S
O2867      C2890   1.293       .  A
O2868     Zr2883   2.440       .  S
O2868      C2891   1.293       .  A
O2869     Zr2882   2.434       .  S
O2869      C2892   1.292       .  A
O2870     Zr2884   2.435       .  S
O2870      C2893   1.292       .  A
O2871      C2894   1.292       .  A
O2872     Zr2882   2.438       .  S
O2872      C2893   1.293       .  A
O2873     Zr2883   2.444       .  S
O2873      C2894   1.293       .  A
O2874     Zr2880   2.432       .  S
O2874      C2889   1.291       .  A
O2875     Zr2881   2.434   1_565  S
O2875      C2892   1.292       .  A
O2876      C2891   1.294       .  A
O2877      C2890   1.292       .  A
O2878     Zr2884   2.445       .  S
O2878      C2887   1.294       .  A
O2879     Zr2884   2.440       .  S
O2879      C2888   1.293       .  A
Zr2880     O2886   2.335       .  S
Zr2881     O2896   2.343   1_545  S
Zr2882     O2886   2.337       .  S
Zr2882     O2896   2.340       .  S
Zr2883     O2885   2.337       .  S
Zr2883     O2898   2.340       .  S
Zr2884     O2886   2.334       .  S
Zr2884     O2896   2.341       .  S
C2889      C3027   1.485       .  S
C2890      C3017   1.488       .  S
C2891      C2994   1.491       .  S
C2892      C3007   1.486       .  S
C2893      C2974   1.486       .  S
C2894      C2984   1.472       .  S
H2895      O2896   0.966       .  S
H2897      O2898   0.966       .  S
O2899     Zr2935   2.450       .  S
O2899      C2910   1.296       .  A
O2900     Zr2934   2.431       .  S
O2900      C2911   1.291       .  A
O2901     Zr3363   2.438   1_554  S
O2901      C2912   1.292       .  A
O2902     Zr2907   2.434       .  S
O2902      C2913   1.292       .  A
O2903     Zr2937   2.430       .  S
O2903      C2913   1.291       .  A
O2904     Zr2936   2.446       .  S
O2904      C2912   1.295       .  A
O2905     Zr2907   2.439       .  S
O2905      C2911   1.293       .  A
O2906     Zr2907   2.429       .  S
O2906      C2910   1.291       .  A
Zr2907     O3357   2.439       .  S
Zr2907     O2908   2.335       .  S
Zr2907     O3365   2.339       .  S
Zr2907     O2917   2.343       .  S
Zr2907     O3371   2.337       .  S
O2908     Zr2934   2.336       .  S
O2908     Zr2937   2.340       .  S
O2909     Zr3363   2.338   1_554  S
O2909     Zr3391   2.340   1_554  S
O2909     Zr2936   2.340       .  S
C2910      C3560   1.489       .  S
C2911      C3553   1.484       .  S
C2912      C3047   1.492       .  S
C2913      C3057   1.484       .  S
H2914      O2915   0.966       .  S
O2915     Zr3363   2.337   1_554  S
O2915     Zr3390   2.342   1_554  S
O2915     Zr2936   2.340       .  S
H2916      O2917   0.966       .  S
O2917     Zr2935   2.340       .  S
O2917     Zr2937   2.338       .  S
O2918     Zr2934   2.439       .  S
O2918      C2941   1.292       .  A
O2919     Zr2935   2.442       .  S
O2919      C2942   1.294       .  A
O2920     Zr2936   2.439       .  S
O2920      C2943   1.292       .  A
O2921     Zr2937   2.430       .  S
O2921      C2944   1.291       .  A
O2922     Zr2937   2.440       .  S
O2922      C2945   1.292       .  A
O2923     Zr2936   2.434       .  S
O2923      C2946   1.292       .  A
O2924     Zr3394   2.433   1_554  S
O2924      C2947   1.291       .  A
O2925     Zr2938   2.427       .  S
O2925      C2948   1.290       .  A
O2926     Zr2936   2.447       .  S
O2926      C2947   1.295       .  A
O2927     Zr2937   2.439       .  S
O2927      C2948   1.293       .  A
O2928     Zr3390   2.441   1_554  S
O2928      C2943   1.293       .  A
O2929     Zr3391   2.435   1_554  S
O2929      C2946   1.293       .  A
O2930     Zr2935   2.440       .  S
O2930      C2945   1.292       .  A
O2931     Zr2934   2.447       .  S
O2931      C2944   1.295       .  A
O2932     Zr2938   2.438       .  S
O2932      C2941   1.293       .  A
O2933     Zr2938   2.432       .  S
O2933      C2942   1.291       .  A
Zr2934     O3384   2.440       .  S
Zr2934     O3371   2.342       .  S
Zr2934     O3396   2.341       .  S
Zr2934     O2952   2.340       .  S
Zr2935     O3385   2.437       .  S
Zr2935     O3365   2.340       .  S
Zr2935     O2939   2.338       .  S
Zr2935     O3406   2.344       .  S
Zr2936     O2940   2.339       .  S
Zr2936     O2950   2.339       .  S
Zr2937     O2939   2.334       .  S
Zr2937     O2952   2.341       .  S
Zr2938     O3380   2.434       .  S
Zr2938     O2939   2.339       .  S
Zr2938     O3396   2.336       .  S
Zr2938     O2952   2.339       .  S
Zr2938     O3406   2.339       .  S
O2940     Zr3390   2.341   1_554  S
O2940     Zr3394   2.335   1_554  S
C2941      C3533   1.486       .  S
C2942      C3540   1.487       .  S
C2943      C2964   1.471       .  S
C2944      C2977   1.487       .  S
C2945      C2987   1.472       .  S
C2946      C2957   1.486       .  S
C2947      C3037   1.491       .  S
C2948      C3067   1.486       .  S
H2949      O2950   0.966       .  S
O2950     Zr3391   2.344   1_554  S
O2950     Zr3394   2.339   1_554  S
H2951      O2952   0.966       .  S
C2953      C2954   1.406       .  A
C2953      C2958   1.396       .  A
C2953      H2960   1.083       .  S
C2954      C2955   1.411       .  A
C2955      C2956   1.396       .  A
C2955      F2962   1.358       .  S
C2956      C2957   1.406       .  A
C2956      H2961   1.083       .  S
C2957      C2958   1.411       .  A
C2958      F2959   1.357       .  S
C2963      C2964   1.404       .  A
C2963      C2968   1.399       .  A
C2963      H2970   1.084       .  S
C2964      C2965   1.405       .  A
C2965      C2966   1.398       .  A
C2965      F2972   1.358       .  S
C2966      C2967   1.403       .  A
C2966      H2971   1.084       .  S
C2967      C2968   1.405       .  A
C2968      F2969   1.358       .  S
C2973      C2974   1.406       .  A
C2973      C2978   1.397       .  A
C2973      H2980   1.083       .  S
C2974      C2975   1.410       .  A
C2975      C2976   1.398       .  A
C2975      F2982   1.358       .  S
C2976      C2977   1.406       .  A
C2976      H2981   1.083       .  S
C2977      C2978   1.411       .  A
C2978      F2979   1.358       .  S
C2983      C2984   1.404       .  A
C2983      C2988   1.399       .  A
C2983      H2990   1.084       .  S
C2984      C2985   1.405       .  A
C2985      C2986   1.399       .  A
C2985      F2992   1.358       .  S
C2986      C2987   1.404       .  A
C2986      H2991   1.084       .  S
C2987      C2988   1.405       .  A
C2988      F2989   1.358       .  S
C2993      C2994   1.407       .  A
C2993      C2998   1.400       .  A
C2993      H3000   1.083       .  S
C2994      C2995   1.411       .  A
C2995      C2996   1.400       .  A
C2995      F3002   1.357       .  S
C2996      C2997   1.407       .  A
C2996      H3001   1.083       .  S
C2997      C2998   1.412       .  A
C2998      F2999   1.358       .  S
C3003      C3004   1.406       .  A
C3003      C3008   1.395       .  A
C3003      H3010   1.083       .  S
C3004      C3005   1.411       .  A
C3005      C3006   1.397       .  A
C3005      F3012   1.358       .  S
C3006      C3007   1.407       .  A
C3006      H3011   1.083       .  S
C3007      C3008   1.410       .  A
C3008      F3009   1.357       .  S
C3013      C3014   1.406       .  A
C3013      C3018   1.397       .  A
C3013      H3020   1.083       .  S
C3014      C3015   1.412       .  A
C3015      C3016   1.397       .  A
C3015      F3022   1.358       .  S
C3016      C3017   1.406       .  A
C3016      H3021   1.083       .  S
C3017      C3018   1.411       .  A
C3018      F3019   1.357       .  S
C3023      C3024   1.404       .  A
C3023      C3028   1.395       .  A
C3023      H3030   1.083       .  S
C3024      C3025   1.412       .  A
C3025      C3026   1.397       .  A
C3025      F3032   1.358       .  S
C3026      C3027   1.406       .  A
C3026      H3031   1.083       .  S
C3027      C3028   1.411       .  A
C3028      F3029   1.357       .  S
C3033      C3034   1.407       .  A
C3033      C3038   1.399       .  A
C3033      H3040   1.083       .  S
C3034      C3035   1.412       .  A
C3035      C3036   1.398       .  A
C3035      F3042   1.357       .  S
C3036      C3037   1.406       .  A
C3036      H3041   1.083       .  S
C3037      C3038   1.412       .  A
C3038      F3039   1.358       .  S
C3043      C3044   1.407       .  A
C3043      C3048   1.399       .  A
C3043      H3050   1.083       .  S
C3044      C3045   1.412       .  A
C3045      C3046   1.400       .  A
C3045      F3052   1.357       .  S
C3046      C3047   1.407       .  A
C3046      H3051   1.083       .  S
C3047      C3048   1.412       .  A
C3048      F3049   1.358       .  S
C3053      C3054   1.406       .  A
C3053      C3058   1.395       .  A
C3053      H3060   1.083       .  S
C3054      C3055   1.410       .  A
C3055      C3056   1.395       .  A
C3055      F3062   1.358       .  S
C3056      C3057   1.406       .  A
C3056      H3061   1.083       .  S
C3057      C3058   1.410       .  A
C3058      F3059   1.358       .  S
C3063      C3064   1.406       .  A
C3063      C3068   1.396       .  A
C3063      H3070   1.083       .  S
C3064      C3065   1.412       .  A
C3065      C3066   1.396       .  A
C3065      F3072   1.358       .  S
C3066      C3067   1.406       .  A
C3066      H3071   1.083       .  S
C3067      C3068   1.411       .  A
C3068      F3069   1.358       .  S
C3073      C3530   1.406       .  A
C3073      C3078   1.397       .  A
C3073      H3080   1.083       .  S
C3074      C3529   1.406   1_554  A
C3074      C3075   1.409       .  A
C3075      C3076   1.398       .  A
C3075      F3082   1.358       .  S
C3076      C3077   1.407   1_554  A
C3076      H3081   1.083       .  S
C3077      C3397   1.485       .  S
C3077      C3534   1.410       .  A
C3078      C3533   1.410       .  A
C3078      F3079   1.358       .  S
C3083      C3540   1.406       .  A
C3083      C3088   1.397       .  A
C3083      H3090   1.083       .  S
C3084      C3398   1.487       .  S
C3084      C3539   1.406       .  A
C3084      C3085   1.411   1_556  A
C3085      C3086   1.397       .  A
C3085      F3092   1.358       .  S
C3086      C3087   1.406   1_554  A
C3086      H3091   1.083       .  S
C3087      C3544   1.411       .  A
C3088      C3543   1.411       .  A
C3088      F3089   1.358       .  S
C3093      C3094   1.406   1_554  A
C3093      C3098   1.398       .  A
C3093      H3100   1.083       .  S
C3094      C3551   1.410       .  A
C3095      C3550   1.410       .  A
C3095      C3096   1.396       .  A
C3095      F3102   1.357       .  S
C3096      C3553   1.405       .  A
C3096      H3101   1.083       .  S
C3097      C3367   1.484       .  S
C3097      C3552   1.405       .  A
C3097      C3098   1.410   1_556  A
C3098      F3099   1.358       .  S
C3103      C3104   1.405       .  A
C3103      C3108   1.397       .  A
C3103      H3110   1.083       .  S
C3104      C3366   1.489       .  S
C3104      C3561   1.413       .  A
C3105      C3560   1.413       .  A
C3105      C3106   1.398       .  A
C3105      F3112   1.358       .  S
C3106      C3563   1.406       .  A
C3106      H3111   1.083       .  S
C3107      C3562   1.406       .  A
C3107      C3108   1.411       .  A
C3108      F3109   1.357       .  S
C3113      C3114   1.407       .  A
C3113      C3118   1.397       .  A
C3113      H3120   1.083       .  S
C3115      C3116   1.397       .  A
C3115      F3122   1.358       .  S
C3116      H3121   1.083       .  S
C3117      C3118   1.410       .  A
C3118      F3119   1.357       .  S
C3123      C3124   1.406       .  A
C3123      C3128   1.396       .  A
C3123      H3130   1.083       .  S
C3125      C3126   1.399       .  A
C3125      F3132   1.358       .  S
C3126      H3131   1.083       .  S
C3127      C3128   1.411       .  A
C3128      F3129   1.357       .  S
C3133      C3138   1.397       .  A
C3133      H3140   1.083       .  S
C3134      C3135   1.412       .  A
C3135      C3136   1.398       .  A
C3135      F3142   1.358       .  S
C3136      C3137   1.406       .  A
C3136      H3141   1.083       .  S
C3138      F3139   1.358       .  S
C3143      C3148   1.397       .  A
C3143      H3150   1.083   1_565  S
C3144      C3145   1.412       .  A
C3145      C3146   1.398       .  A
C3145      F3152   1.358       .  S
C3146      C3147   1.407       .  A
C3146      H3151   1.083       .  S
C3148      F3149   1.357   1_565  S
C3153      C3158   1.398       .  A
C3153      H3160   1.083       .  S
C3154      C3155   1.408       .  A
C3155      C3156   1.397       .  A
C3155      F3162   1.358       .  S
C3156      C3157   1.405       .  A
C3156      H3161   1.083       .  S
C3158      F3159   1.358       .  S
C3163      C3168   1.396       .  A
C3163      H3170   1.084       .  S
C3164      C3165   1.405       .  A
C3165      C3166   1.395       .  A
C3165      F3172   1.358       .  S
C3166      C3167   1.403       .  A
C3166      H3171   1.084       .  S
C3168      F3169   1.357       .  S
C3173      C3174   1.406       .  A
C3173      C3178   1.396       .  A
C3173      H3180   1.083       .  S
C3175      C3176   1.396       .  A
C3175      F3182   1.358       .  S
C3176      H3181   1.083       .  S
C3177      C3178   1.411       .  A
C3178      F3179   1.358       .  S
C3183      C3184   1.407       .  A
C3183      C3188   1.397       .  A
C3183      H3190   1.083       .  S
C3185      C3186   1.396       .  A
C3185      F3192   1.358       .  S
C3186      H3191   1.083       .  S
C3187      C3188   1.411       .  A
C3188      F3189   1.358       .  S
O3193     Zr3229   2.436       .  S
O3193      C3204   1.293       .  A
O3194     Zr3228   2.442       .  S
O3194      C3205   1.293       .  A
O3195     Zr3201   2.442       .  S
O3195      C3206   1.294       .  A
O3196      C3207   1.293       .  A
O3197     Zr3231   2.434       .  S
O3197      C3207   1.292       .  A
O3198     Zr3230   2.431       .  S
O3198      C3206   1.291       .  A
O3199      C3205   1.292       .  A
O3200     Zr3201   2.435       .  S
O3200      C3204   1.292       .  A
Zr3201     O3203   2.336       .  S
O3203     Zr3229   2.336       .  S
O3203     Zr3230   2.339       .  S
C3204      C3640   1.487       .  S
C3205      C3610   1.481       .  S
C3206      C3563   1.488       .  S
C3207      C3543   1.487       .  S
H3208      O3209   0.966       .  S
O3209     Zr3228   2.337       .  S
H3210      O3211   0.966       .  S
O3211     Zr3231   2.344       .  S
O3212      C3235   1.291       .  A
O3213      C3236   1.293       .  A
O3214      C3237   1.292       .  A
O3215      C3238   1.294       .  A
O3216     Zr3231   2.439       .  S
O3216      C3239   1.294       .  A
O3217     Zr3230   2.429       .  S
O3217      C3240   1.291       .  A
O3218     Zr3232   2.436       .  S
O3218      C3241   1.292       .  A
O3219      C3242   1.293       .  A
O3220      C3241   1.293       .  A
O3221      C3242   1.292       .  A
O3222     Zr3228   2.440       .  S
O3222      C3237   1.293       .  A
O3223     Zr3229   2.445       .  S
O3223      C3240   1.294       .  A
O3224      C3239   1.292       .  A
O3225      C3238   1.291       .  A
O3226      C3235   1.291       .  A
O3227     Zr3232   2.435       .  S
O3227      C3236   1.291       .  A
Zr3232     O3244   2.338       .  S
C3235      C3623   1.467       .  S
C3236      C3633   1.487       .  S
C3237      C3583   1.489       .  S
C3238      C3570   1.489       .  S
C3239      C3603   1.488       .  S
C3240      C3590   1.487       .  S
C3241      C3550   1.485       .  S
C3242      C3530   1.485       .  S
H3243      O3244   0.966       .  S
H3245      O3246   0.966       .  S
O3247     Zr3283   2.437       .  S
O3247      C3258   1.293       .  A
O3248     Zr3282   2.433       .  S
O3248      C3259   1.291       .  A
O3249     Zr3255   2.446       .  S
O3249      C3260   1.295       .  A
O3250      C3261   1.293       .  A
O3251     Zr3285   2.445       .  S
O3251      C3261   1.294       .  A
O3252     Zr3284   2.425       .  S
O3252      C3260   1.290       .  A
O3253     Zr3255   2.440       .  S
O3253      C3259   1.293       .  A
O3254     Zr3255   2.433       .  S
O3254      C3258   1.292       .  A
Zr3255     O3257   2.339       .  S
Zr3255     O3263   2.338       .  S
O3256     Zr3285   2.337       .  S
O3257     Zr3283   2.339       .  S
O3257     Zr3284   2.334       .  S
C3258      C3643   1.487       .  S
C3259      C3613   1.481       .  S
C3260      C3470   1.488       .  S
C3261      C3453   1.492       .  S
H3262      O3263   0.966       .  S
O3263     Zr3282   2.339       .  S
O3263     Zr3284   2.339       .  S
H3264      O3265   0.966       .  S
O3265     Zr3285   2.337       .  S
O3266     Zr3282   2.431       .  S
O3266      C3289   1.291       .  A
O3267     Zr3283   2.439       .  S
O3267      C3290   1.293       .  A
O3268     Zr3284   2.432       .  S
O3268      C3291   1.292       .  A
O3269     Zr3285   2.427       .  S
O3269      C3292   1.290       .  A
O3270     Zr3285   2.437       .  S
O3270      C3293   1.292       .  A
O3271     Zr3284   2.439       .  S
O3271      C3294   1.292       .  A
O3272     Zr3286   2.441       .  S
O3272      C3295   1.294       .  A
O3273      C3296   1.291       .  A
O3274     Zr3284   2.422       .  S
O3274      C3295   1.289       .  A
O3275     Zr3285   2.437       .  S
O3275      C3296   1.293       .  A
O3276     Zr3282   2.432       .  S
O3276      C3291   1.291       .  A
O3277     Zr3283   2.447       .  S
O3277      C3294   1.295       .  A
O3278      C3293   1.295       .  A
O3279      C3292   1.294       .  A
O3280     Zr3286   2.430       .  S
O3280      C3289   1.291       .  A
O3281     Zr3286   2.430       .  S
O3281      C3290   1.291       .  A
Zr3282     O3288   2.337       .  S
Zr3283     O3298   2.342       .  S
Zr3284     O3288   2.336       .  S
Zr3284     O3298   2.337       .  S
Zr3285     O3287   2.336       .  S
Zr3285     O3300   2.342       .  S
Zr3286     O3288   2.333       .  S
Zr3286     O3298   2.338       .  S
C3289      C3620   1.467       .  S
C3290      C3630   1.486       .  S
C3291      C3510   1.484       .  S
C3292      C3520   1.485       .  S
C3293      C3490   1.492       .  S
C3294      C3500   1.493       .  S
C3295      C3480   1.484       .  S
C3296      C3460   1.485       .  S
H3297      O3298   0.966       .  S
H3299      O3300   0.966       .  S
O3301     Zr3337   2.441   1_565  S
O3301      C3312   1.294       .  A
O3302     Zr3336   2.432   1_545  S
O3302      C3313   1.291       .  A
O3303     Zr3309   2.438       .  S
O3303      C3314   1.292       .  A
O3304      C3315   1.290       .  A
O3305     Zr3339   2.442       .  S
O3305      C3315   1.294       .  A
O3306     Zr3338   2.438       .  S
O3306      C3314   1.292       .  A
O3307     Zr3309   2.438   1_545  S
O3307      C3313   1.293       .  A
O3308     Zr3309   2.434       .  S
O3308      C3312   1.291       .  A
Zr3309     O3311   2.336       .  S
Zr3309     O3317   2.337       .  S
O3310     Zr3339   2.338       .  S
O3311     Zr3337   2.339   1_565  S
O3311     Zr3338   2.336       .  S
C3314      C3423   1.470       .  S
C3315      C3410   1.486       .  S
H3316      O3317   0.966       .  S
O3317     Zr3336   2.341       .  S
O3317     Zr3338   2.343       .  S
H3318      O3319   0.966       .  S
O3319     Zr3339   2.345       .  S
O3320     Zr3336   2.429       .  S
O3320      C3343   1.290       .  A
O3321     Zr3337   2.433   1_565  S
O3321      C3344   1.292       .  A
O3322     Zr3338   2.435       .  S
O3322      C3345   1.293       .  A
O3323     Zr3339   2.437       .  S
O3323      C3346   1.293       .  A
O3324     Zr3339   2.440       .  S
O3324      C3347   1.293       .  A
O3325     Zr3338   2.434       .  S
O3325      C3348   1.292       .  A
O3326     Zr3340   2.435       .  S
O3326      C3349   1.292       .  A
O3327      C3350   1.291       .  A
O3328     Zr3338   2.437       .  S
O3328      C3349   1.293       .  A
O3329     Zr3339   2.444       .  S
O3329      C3350   1.293       .  A
O3330     Zr3336   2.431       .  S
O3330      C3345   1.291       .  A
O3331     Zr3337   2.433   1_565  S
O3331      C3348   1.292       .  A
O3332      C3347   1.294       .  A
O3333      C3346   1.292       .  A
O3334     Zr3340   2.444       .  S
O3334      C3343   1.294       .  A
O3335     Zr3340   2.440       .  S
O3335      C3344   1.293       .  A
Zr3336     O3342   2.335       .  S
Zr3337     O3352   2.343   1_545  S
Zr3338     O3342   2.336       .  S
Zr3338     O3352   2.339       .  S
Zr3339     O3341   2.337       .  S
Zr3339     O3354   2.339       .  S
Zr3340     O3342   2.334       .  S
Zr3340     O3352   2.340       .  S
C3345      C3483   1.485       .  S
C3346      C3473   1.489       .  S
C3347      C3450   1.491       .  S
C3348      C3463   1.485       .  S
C3349      C3430   1.485       .  S
C3350      C3440   1.471       .  S
H3351      O3352   0.966       .  S
H3353      O3354   0.966       .  S
O3355     Zr3391   2.451       .  S
O3355      C3366   1.296       .  A
O3356     Zr3390   2.432       .  S
O3356      C3367   1.291       .  A
O3357      C3368   1.292       .  A
O3358     Zr3363   2.433       .  S
O3358      C3369   1.292       .  A
O3359     Zr3393   2.430       .  S
O3359      C3369   1.291       .  A
O3360     Zr3392   2.446       .  S
O3360      C3368   1.295       .  A
O3361     Zr3363   2.439       .  S
O3361      C3367   1.293       .  A
O3362     Zr3363   2.429       .  S
O3362      C3366   1.290       .  A
Zr3363     O3364   2.335       .  S
Zr3363     O3373   2.343       .  S
O3364     Zr3390   2.336       .  S
O3364     Zr3393   2.340       .  S
O3365     Zr3392   2.340       .  S
C3368      C3503   1.492       .  S
C3369      C3513   1.484       .  S
H3370      O3371   0.966       .  S
O3371     Zr3392   2.341       .  S
H3372      O3373   0.966       .  S
O3373     Zr3391   2.340       .  S
O3373     Zr3393   2.337       .  S
O3374     Zr3390   2.438       .  S
O3374      C3397   1.292       .  A
O3375     Zr3391   2.442       .  S
O3375      C3398   1.294       .  A
O3376     Zr3392   2.438       .  S
O3376      C3399   1.292       .  A
O3377     Zr3393   2.429       .  S
O3377      C3400   1.291       .  A
O3378     Zr3393   2.441       .  S
O3378      C3401   1.292       .  A
O3379     Zr3392   2.433       .  S
O3379      C3402   1.291       .  A
O3380      C3403   1.291       .  A
O3381     Zr3394   2.425       .  S
O3381      C3404   1.290       .  A
O3382     Zr3392   2.447       .  S
O3382      C3403   1.295       .  A
O3383     Zr3393   2.437       .  S
O3383      C3404   1.293       .  A
O3384      C3399   1.292       .  A
O3385      C3402   1.293       .  A
O3386     Zr3391   2.439       .  S
O3386      C3401   1.292       .  A
O3387     Zr3390   2.447       .  S
O3387      C3400   1.295       .  A
O3388     Zr3394   2.439       .  S
O3388      C3397   1.293       .  A
O3389     Zr3394   2.433       .  S
O3389      C3398   1.291       .  A
Zr3390     O3408   2.340       .  S
Zr3391     O3395   2.338       .  S
Zr3392     O3396   2.339       .  S
Zr3392     O3406   2.339       .  S
Zr3393     O3395   2.334       .  S
Zr3393     O3408   2.341       .  S
Zr3394     O3395   2.339       .  S
Zr3394     O3408   2.339       .  S
C3399      C3420   1.470       .  S
C3400      C3433   1.486       .  S
C3401      C3443   1.472       .  S
C3402      C3413   1.486       .  S
C3403      C3493   1.491       .  S
C3404      C3523   1.484       .  S
H3405      O3406   0.966       .  S
H3407      O3408   0.966       .  S
C3409      C3410   1.405       .  A
C3409      C3414   1.396       .  A
C3409      H3416   1.083       .  S
C3410      C3411   1.411       .  A
C3411      C3412   1.396       .  A
C3411      F3418   1.358       .  S
C3412      C3413   1.406       .  A
C3412      H3417   1.083       .  S
C3413      C3414   1.411       .  A
C3414      F3415   1.357       .  S
C3419      C3420   1.403       .  A
C3419      C3424   1.398       .  A
C3419      H3426   1.084       .  S
C3420      C3421   1.405       .  A
C3421      C3422   1.398       .  A
C3421      F3428   1.358       .  S
C3422      C3423   1.403       .  A
C3422      H3427   1.084       .  S
C3423      C3424   1.405       .  A
C3424      F3425   1.358       .  S
C3429      C3430   1.406       .  A
C3429      C3434   1.397       .  A
C3429      H3436   1.083       .  S
C3430      C3431   1.410       .  A
C3431      C3432   1.397       .  A
C3431      F3438   1.358       .  S
C3432      C3433   1.406       .  A
C3432      H3437   1.083       .  S
C3433      C3434   1.411       .  A
C3434      F3435   1.358       .  S
C3439      C3440   1.403       .  A
C3439      C3444   1.399       .  A
C3439      H3446   1.084       .  S
C3440      C3441   1.405       .  A
C3441      C3442   1.399       .  A
C3441      F3448   1.358       .  S
C3442      C3443   1.404       .  A
C3442      H3447   1.084       .  S
C3443      C3444   1.406       .  A
C3444      F3445   1.358       .  S
C3449      C3450   1.407       .  A
C3449      C3454   1.400       .  A
C3449      H3456   1.083       .  S
C3450      C3451   1.411       .  A
C3451      C3452   1.400       .  A
C3451      F3458   1.358       .  S
C3452      C3453   1.407       .  A
C3452      H3457   1.083       .  S
C3453      C3454   1.412       .  A
C3454      F3455   1.358       .  S
C3459      C3460   1.406       .  A
C3459      C3464   1.394       .  A
C3459      H3466   1.083       .  S
C3460      C3461   1.411       .  A
C3461      C3462   1.397       .  A
C3461      F3468   1.358       .  S
C3462      C3463   1.407       .  A
C3462      H3467   1.083       .  S
C3463      C3464   1.410       .  A
C3464      F3465   1.357       .  S
C3469      C3470   1.406       .  A
C3469      C3474   1.397       .  A
C3469      H3476   1.083       .  S
C3470      C3471   1.412       .  A
C3471      C3472   1.397       .  A
C3471      F3478   1.358       .  S
C3472      C3473   1.407       .  A
C3472      H3477   1.083       .  S
C3473      C3474   1.411       .  A
C3474      F3475   1.357       .  S
C3479      C3480   1.405       .  A
C3479      C3484   1.394       .  A
C3479      H3486   1.083       .  S
C3480      C3481   1.412       .  A
C3481      C3482   1.397       .  A
C3481      F3488   1.358       .  S
C3482      C3483   1.406       .  A
C3482      H3487   1.083       .  S
C3483      C3484   1.411       .  A
C3484      F3485   1.357       .  S
C3489      C3490   1.407       .  A
C3489      C3494   1.399       .  A
C3489      H3496   1.083       .  S
C3490      C3491   1.412       .  A
C3491      C3492   1.398       .  A
C3491      F3498   1.357       .  S
C3492      C3493   1.406       .  A
C3492      H3497   1.083       .  S
C3493      C3494   1.412       .  A
C3494      F3495   1.358       .  S
C3499      C3500   1.407       .  A
C3499      C3504   1.399       .  A
C3499      H3506   1.083       .  S
C3500      C3501   1.412       .  A
C3501      C3502   1.400       .  A
C3501      F3508   1.357       .  S
C3502      C3503   1.407       .  A
C3502      H3507   1.083       .  S
C3503      C3504   1.412       .  A
C3504      F3505   1.358       .  S
C3509      C3510   1.406       .  A
C3509      C3514   1.395       .  A
C3509      H3516   1.083       .  S
C3510      C3511   1.410       .  A
C3511      C3512   1.395       .  A
C3511      F3518   1.358       .  S
C3512      C3513   1.406       .  A
C3512      H3517   1.083       .  S
C3513      C3514   1.410       .  A
C3514      F3515   1.358       .  S
C3519      C3520   1.405       .  A
C3519      C3524   1.395       .  A
C3519      H3526   1.083       .  S
C3520      C3521   1.412       .  A
C3521      C3522   1.396       .  A
C3521      F3528   1.358       .  S
C3522      C3523   1.405       .  A
C3522      H3527   1.083       .  S
C3523      C3524   1.411       .  A
C3524      F3525   1.358       .  S
C3529      C3534   1.397       .  A
C3529      H3536   1.083       .  S
C3530      C3531   1.409       .  A
C3531      C3532   1.398       .  A
C3531      F3538   1.358       .  S
C3532      C3533   1.407       .  A
C3532      H3537   1.083       .  S
C3534      F3535   1.358       .  S
C3539      C3544   1.398       .  A
C3539      H3546   1.083       .  S
C3540      C3541   1.411       .  A
C3541      C3542   1.397       .  A
C3541      F3548   1.358       .  S
C3542      C3543   1.406       .  A
C3542      H3547   1.083       .  S
C3544      F3545   1.358       .  S
C3549      C3550   1.406       .  A
C3549      C3554   1.398       .  A
C3549      H3556   1.083       .  S
C3551      C3552   1.396       .  A
C3551      F3558   1.357       .  S
C3552      H3557   1.083       .  S
C3553      C3554   1.410       .  A
C3554      F3555   1.358       .  S
C3559      C3560   1.405       .  A
C3559      C3564   1.397       .  A
C3559      H3566   1.083       .  S
C3561      C3562   1.398       .  A
C3561      F3568   1.358       .  S
C3562      H3567   1.083   1_556  S
C3563      C3564   1.411       .  A
C3564      F3565   1.357       .  S
C3569      C3570   1.407       .  A
C3569      C3574   1.397       .  A
C3569      H3576   1.083       .  S
C3571      C3572   1.397       .  A
C3571      F3578   1.358   1_565  S
C3572      H3577   1.083   1_565  S
C3573      C3574   1.410       .  A
C3574      F3575   1.357       .  S
C3579      C3580   1.405       .  A
C3579      C3584   1.397       .  A
C3579      H3586   1.083       .  S
C3581      C3582   1.398       .  A
C3581      F3588   1.358       .  S
C3582      H3587   1.083       .  S
C3583      C3584   1.411       .  A
C3584      F3585   1.357       .  S
C3589      C3594   1.397       .  A
C3589      H3596   1.083       .  S
C3590      C3591   1.412       .  A
C3591      C3592   1.397       .  A
C3591      F3598   1.358       .  S
C3592      C3593   1.406       .  A
C3592      H3597   1.083       .  S
C3594      F3595   1.358       .  S
C3599      C3604   1.397       .  A
C3599      H3606   1.083       .  S
C3600      C3601   1.411       .  A
C3601      C3602   1.397       .  A
C3601      F3608   1.358       .  S
C3602      C3603   1.407       .  A
C3602      H3607   1.083       .  S
C3604      F3605   1.357       .  S
C3609      C3614   1.398       .  A
C3609      H3616   1.083       .  S
C3610      C3611   1.408       .  A
C3611      C3612   1.397       .  A
C3611      F3618   1.358       .  S
C3612      C3613   1.405       .  A
C3612      H3617   1.083       .  S
C3614      F3615   1.358       .  S
C3619      C3624   1.395       .  A
C3619      H3626   1.084       .  S
C3620      C3621   1.405       .  A
C3621      C3622   1.394       .  A
C3621      F3628   1.358       .  S
C3622      C3623   1.403       .  A
C3622      H3627   1.084       .  S
C3624      F3625   1.357       .  S
C3629      C3630   1.406       .  A
C3629      C3634   1.396       .  A
C3629      H3636   1.083       .  S
C3631      C3632   1.396       .  A
C3631      F3638   1.358       .  S
C3632      H3637   1.083       .  S
C3633      C3634   1.411       .  A
C3634      F3635   1.357       .  S
C3639      C3640   1.407       .  A
C3639      C3644   1.397       .  A
C3639      H3646   1.083       .  S
C3641      C3642   1.396       .  A
C3641      F3648   1.358       .  S
C3642      H3647   1.083       .  S
C3643      C3644   1.411       .  A
C3644      F3645   1.358       .  S
