geometry optimzed in LAMMPS
_audit_creation_date              2020-11-30 
_audit_creation_method            'lammps2cif' 
_symmetry_space_group_name_H-M    'P1' 
_symmetry_Int_Tables_number       1 
_symmetry_cell_setting            triclinic 
loop_ 
_symmetry_equiv_pos_as_xyz 
  x,y,z 
_cell_length_a                    26.45795253 
_cell_length_b                    26.4570592426914 
_cell_length_c                    22.749094806244795 
_cell_angle_alpha                 88.92940153680254 
_cell_angle_beta                  90.10375409805637 
_cell_angle_gamma                 89.9026070479819 
loop_ 
_atom_site_label 
_atom_site_type_symbol 
_atom_site_fract_x 
_atom_site_fract_y 
_atom_site_fract_z 
_atom_site_charge 
C1          C  0.48399330  0.84908729  0.08055286     0.86900
C2          C  0.53238037  0.85010264  0.11971242    -0.53400
C3          C  0.53496354  0.89156770  0.15508152     0.09800
C4          C  0.48977293  0.92724526  0.14831261     0.20700
C5          C  0.43946705  0.85378191  0.12424079    -0.54100
C6          C  0.44248478  0.89524582  0.15901723     0.09900
C7          C  0.48477373  0.90009541  0.04721333    -0.53600
C8          C  0.48844813  0.94046004  0.08248418     0.10500
H9          H  0.56214263  0.82189454  0.11854747     0.15000
H10         H  0.49189362  0.96103277  0.17653989     0.00700
H11         H  0.40780343  0.82784268  0.12665573     0.15300
H12         H  0.48438685  0.90383619  0.99952343     0.15100
O13         O  0.57233698  0.92747487  0.24041785    -0.57400
C14         C  0.66114952  0.94949107  0.38845902     0.75200
O15         O  0.74608079  0.91720098  0.22524986    -0.58600
C16         C  0.57884994  0.90675018  0.19134828     0.75200
C17         C  0.66533328  0.05707972  0.23919542     0.77600
Cd18       Cd  0.66155691  0.94808880  0.26126131     1.37500
O19         O  0.62470721  0.93006269  0.36066147    -0.57400
O20         O  0.62574150  0.03361481  0.25419590    -0.56200
C21         C  0.74281704  0.87600146  0.25463548     0.77500
O22         O  0.70350711  0.02996469  0.22770179    -0.58600
O23         O  0.69645996  0.96814025  0.35784631    -0.57100
O24         O  0.62411077  0.90386073  0.17362970    -0.57100
O25         O  0.70219143  0.86837834  0.28256534    -0.56200
O26         O  0.41085191  0.93789080  0.24312925    -0.57400
C27         C  0.32873739  0.94902720  0.39837392     0.75200
O28         O  0.27890801  0.03280936  0.23365549    -0.58600
C29         C  0.40154401  0.91246863  0.19789484     0.75200
C30         C  0.24288583  0.87710846  0.26480400     0.77600
Cd31       Cd  0.32190475  0.95193655  0.27177543     1.37500
O32         O  0.36438064  0.93207148  0.36732462    -0.57400
O33         O  0.28414545  0.87010124  0.29190134    -0.56200
C34         C  0.31691062  0.06036145  0.24442372     0.77500
O35         O  0.23735282  0.91943166  0.23814880    -0.58600
O36         O  0.29142750  0.96805607  0.37114847    -0.57100
O37         O  0.35542049  0.90479789  0.18645001    -0.57100
O38         O  0.35567205  0.03764895  0.26373061    -0.56200
C39         C  0.50133923  0.32115799  0.07639629     0.86900
C40         C  0.45105851  0.31925331  0.11135545    -0.53400
C41         C  0.44940759  0.28057791  0.15219754     0.09800
C42         C  0.49753397  0.24848152  0.15501673     0.20700
C43         C  0.54337519  0.32351996  0.12388020    -0.54100
C44         C  0.54154542  0.28462809  0.16416142     0.09900
C45         C  0.50646454  0.26780423  0.05109593    -0.53600
C46         C  0.50510538  0.23033243  0.09241806     0.10500
H47         H  0.41949791  0.34481581  0.10394433     0.15000
H48         H  0.49600496  0.21690173  0.18791831     0.00700
H49         H  0.57405446  0.35066007  0.12325889     0.15300
H50         H  0.51349887  0.26052925  0.00494221     0.15100
O51         O  0.62807390  0.23885846  0.36221239    -0.57400
C52         C  0.58479743  0.26773603  0.20032178     0.69600
O53         O  0.74732094  0.25629682  0.22109944    -0.58600
C54         C  0.66410150  0.22008267  0.39209569     0.75200
C55         C  0.66665227  0.11293787  0.24075731     0.77600
Cd56       Cd  0.66673337  0.22116049  0.26578302     1.37500
O57         O  0.57798559  0.24309420  0.24772376    -0.57400
O58         O  0.62810725  0.13719988  0.25673919    -0.56200
C59         C  0.74698820  0.29407987  0.25485399     0.77500
O60         O  0.70610789  0.13895708  0.23112108    -0.58600
O61         O  0.62999619  0.27213269  0.18285819    -0.57100
O62         O  0.70025318  0.20095206  0.36377299    -0.57100
O63         O  0.71075958  0.29685631  0.29071718    -0.56200
O64         O  0.36237020  0.24225826  0.35139876    -0.57400
C65         C  0.40468575  0.26528897  0.18688365     0.75200
O66         O  0.27796598  0.14275966  0.22834486    -0.58600
C67         C  0.32737367  0.22210270  0.38159226     0.75200
C68         C  0.24265420  0.30081670  0.24761959     0.77600
Cd69       Cd  0.32128013  0.22527162  0.25585202     1.37500
O70         O  0.41002424  0.24512455  0.23727519    -0.57400
O71         O  0.28037905  0.30353404  0.28157112    -0.56200
C72         C  0.31688429  0.11619743  0.23972679     0.77500
O73         O  0.24054317  0.26257733  0.21468730    -0.58600
O74         O  0.35995437  0.26816081  0.16712089    -0.57100
O75         O  0.29046258  0.20396763  0.35376496    -0.57100
O76         O  0.35662922  0.14024835  0.25158261    -0.56200
C77         C  0.50694037  0.84546316  0.77019004     0.86900
C78         C  0.45919851  0.84599188  0.73023075    -0.53400
C79         C  0.45679544  0.88726851  0.69286412     0.09800
C80         C  0.50141196  0.92336352  0.69853719     0.20700
C81         C  0.55205897  0.85028242  0.72709991    -0.54100
C82         C  0.54914330  0.89167644  0.69036400     0.09900
C83         C  0.50524285  0.89664047  0.80093752    -0.53600
C84         C  0.50169932  0.93686691  0.76364869     0.10500
H85         H  0.42940442  0.81791519  0.73271686     0.15000
H86         H  0.49925511  0.95702641  0.66862669     0.00700
H87         H  0.58409829  0.82467815  0.72656631     0.15300
H88         H  0.50496773  0.90059098  0.84843298     0.15100
O89         O  0.62836950  0.93267041  0.48500773    -0.57400
C90         C  0.59072436  0.90973031  0.65239447     0.75200
O91         O  0.75556025  0.92157622  0.61943905    -0.58600
C92         C  0.66335222  0.95029441  0.45293926     0.75200
C93         C  0.67463302  0.05865911  0.60563442     0.77600
Cd94       Cd  0.67097823  0.95135294  0.58017394     1.37500
O95         O  0.58200867  0.93405384  0.60509050    -0.57400
O96         O  0.63433634  0.03505263  0.59504022    -0.56200
C97         C  0.75050451  0.87804718  0.59758639     0.77500
O98         O  0.71450673  0.03223476  0.60980432    -0.58600
O99         O  0.63664626  0.90427135  0.66681169    -0.57100
O100        O  0.70103885  0.96853567  0.47927021    -0.57100
O101        O  0.70981534  0.86971343  0.57025616    -0.56200
O102        O  0.41818524  0.92265024  0.60665965    -0.57400
C103        C  0.32973669  0.94674051  0.46277688     0.75200
O104        O  0.24935239  0.90943212  0.63539838    -0.58600
C105        C  0.41258455  0.90277795  0.65719907     0.75200
C106        C  0.32516848  0.05433969  0.60603706     0.77600
Cd107      Cd  0.32891561  0.94479631  0.58946278     1.37500
O108        O  0.36737557  0.92994767  0.49156263    -0.57400
O109        O  0.36483954  0.03026985  0.59363163    -0.56200
C110        C  0.25096361  0.86956118  0.60510723     0.77500
O111        O  0.28652391  0.02768662  0.61772759    -0.58600
O112        O  0.29229815  0.96156463  0.49227603    -0.57100
O113        O  0.36796684  0.90135202  0.67710581    -0.57100
O114        O  0.28810686  0.86508827  0.57068951    -0.56200
C115        C  0.48845220  0.31725210  0.75870986     0.86900
C116        C  0.53935708  0.31431234  0.72512798    -0.53400
C117        C  0.54109112  0.27562451  0.68593785     0.09800
C118        C  0.49257267  0.24434698  0.68356583     0.20700
C119        C  0.44749846  0.32038899  0.70997014    -0.54100
C120        C  0.44964687  0.28145857  0.67145524     0.09900
C121        C  0.48185799  0.26409432  0.78631012    -0.53600
C122        C  0.48316881  0.22652813  0.74676817     0.10500
H123        H  0.57097985  0.33963607  0.73161941     0.15000
H124        H  0.49407859  0.21267224  0.65215495     0.00700
H125        H  0.41711486  0.34798159  0.70878388     0.15300
H126        H  0.47375051  0.25708259  0.83258464     0.15100
O127        O  0.36528252  0.23695381  0.47504230    -0.57400
C128        C  0.40690507  0.26496349  0.63551579     0.75200
O129        O  0.24575127  0.25165268  0.61672012    -0.58600
C130        C  0.32844432  0.22019594  0.44579173     0.75200
C131        C  0.32452983  0.11027318  0.60144754     0.77600
Cd132      Cd  0.32592093  0.21873201  0.57186865     1.37500
O133        O  0.41414001  0.24254167  0.58770753    -0.57400
O134        O  0.36332341  0.13387131  0.58406943    -0.56200
C135        C  0.24632113  0.29149531  0.58469283     0.77500
O136        O  0.28550777  0.13700845  0.60995759    -0.58600
O137        O  0.36190433  0.26696449  0.65399295    -0.57100
O138        O  0.29174468  0.20198775  0.47464003    -0.57100
O139        O  0.28265160  0.29644383  0.54912983    -0.56200
O140        O  0.58005251  0.23789040  0.60327862    -0.57400
C141        C  0.66473897  0.22085635  0.45643048     0.75200
O142        O  0.74960034  0.25547998  0.62758613    -0.58600
C143        C  0.58560424  0.26088655  0.65105132     0.75200
C144        C  0.67434175  0.11428708  0.60689837     0.77600
Cd145      Cd  0.66938811  0.22222724  0.58313620     1.37500
O146        O  0.62979571  0.24106141  0.48584735    -0.57400
O147        O  0.63352607  0.13818616  0.59896428    -0.56200
C148        C  0.74902623  0.29499325  0.59495535     0.77500
O149        O  0.71410315  0.14070388  0.61056296    -0.58600
O150        O  0.70102979  0.20163597  0.48524682    -0.57100
O151        O  0.63062787  0.26771525  0.66805932    -0.57100
O152        O  0.71187930  0.30035475  0.56033535    -0.56200
C153        C  0.76066353  0.59611280  0.08700176     0.86900
C154        C  0.75668258  0.54858851  0.12812136    -0.53400
C155        C  0.79477114  0.54536025  0.16910621     0.09800
C156        C  0.83208671  0.58922689  0.16582215     0.20700
C157        C  0.76305880  0.64147162  0.12900179    -0.54100
C158        C  0.80109979  0.63780041  0.16954169     0.09900
C159        C  0.81428096  0.59273691  0.06130702    -0.53600
C160        C  0.85103808  0.58830471  0.10255683     0.10500
H161        H  0.72889716  0.51889242  0.12290680     0.15000
H162        H  0.86326933  0.58657966  0.19858970     0.00700
H163        H  0.73855143  0.67431135  0.12613907     0.15300
H164        H  0.82222136  0.59114065  0.01449975     0.15100
O165        O  0.83802471  0.72302291  0.37417040    -0.57400
C166        C  0.81779269  0.67966060  0.20672996     0.75200
O167        O  0.82599570  0.84273875  0.23326717    -0.58600
C168        C  0.86052288  0.75668944  0.40306467     0.75200
C169        C  0.96677168  0.76053357  0.25378383     0.77600
Cd170      Cd  0.85858489  0.76023655  0.27644595     1.37500
O171        O  0.83705932  0.67143260  0.25694564    -0.57400
O172        O  0.94216423  0.72115011  0.26727301    -0.56200
C173        C  0.78359644  0.83828693  0.25900704     0.77500
O174        O  0.94102411  0.80046968  0.24488096    -0.58600
O175        O  0.81668384  0.72516766  0.18865064    -0.57100
O176        O  0.88145555  0.79184425  0.37375084    -0.57100
O177        O  0.77739303  0.79927525  0.29106010    -0.56200
O178        O  0.84092443  0.45355459  0.36249357    -0.57400
C179        C  0.80956309  0.49970896  0.20332787     0.75200
O180        O  0.94025727  0.37398291  0.23912215    -0.58600
C181        C  0.86248585  0.41857233  0.39178552     0.75200
C182        C  0.78583105  0.33374544  0.25489869     0.77600
Cd183      Cd  0.85716924  0.41543624  0.26534232     1.37500
O184        O  0.83207141  0.50386335  0.25206070    -0.57400
O185        O  0.78330501  0.36794046  0.29277732    -0.56200
C186        C  0.96537322  0.41468961  0.23702533     0.77500
O187        O  0.82248471  0.33628044  0.21896589    -0.58600
O188        O  0.80657674  0.45555980  0.18299435    -0.57100
O189        O  0.88212253  0.38332013  0.36286869    -0.57100
O190        O  0.94001224  0.45493609  0.24120295    -0.56200
C191        C  0.23374919  0.59889845  0.08319573     0.86900
C192        C  0.23127016  0.64257689  0.12766183    -0.53400
C193        C  0.18996963  0.64002252  0.16381857     0.09800
C194        C  0.15581804  0.59472876  0.15303868     0.20700
C195        C  0.23077076  0.54972860  0.12169663    -0.54100
C196        C  0.18943764  0.54801706  0.15790132     0.09900
C197        C  0.18249793  0.60144980  0.05128420    -0.53600
C198        C  0.14227470  0.59893432  0.08780111     0.10500
H199        H  0.25824609  0.67336353  0.12925757     0.15000
H200        H  0.12207381  0.59321075  0.18209931     0.00700
H201        H  0.25769614  0.51885053  0.11985626     0.15300
H202        H  0.17839359  0.60374388  0.00373857     0.15100
O203        O  0.15089724  0.45711210  0.35878219    -0.57400
C204        C  0.17276727  0.50385935  0.19344923     0.75200
O205        O  0.16439333  0.34077870  0.21668031    -0.58600
C206        C  0.12899597  0.42276785  0.38859648     0.75200
C207        C  0.02135431  0.41576463  0.23645993     0.77600
Cd208      Cd  0.13004085  0.42041834  0.26143350     1.37500
O209        O  0.15195270  0.50963164  0.24291527    -0.57400
O210        O  0.04514200  0.45698678  0.24003683    -0.56200
C211        C  0.20371718  0.34056699  0.24878738     0.77500
O212        O  0.04810796  0.37600139  0.23808586    -0.58600
O213        O  0.17470916  0.45914665  0.17466657    -0.57100
O214        O  0.10658642  0.38901450  0.35997882    -0.57100
O215        O  0.20830703  0.37662896  0.28400711    -0.56200
O216        O  0.15078992  0.71493733  0.37485673    -0.57400
C217        C  0.17343250  0.68007851  0.20354259     0.75200
O218        O  0.04941990  0.79874418  0.24569802    -0.58600
C219        C  0.13127013  0.74961876  0.40507109     0.75200
C220        C  0.20394266  0.83741713  0.26645773     0.77600
Cd221      Cd  0.13102826  0.75667871  0.27807372     1.37500
O222        O  0.15376517  0.66940148  0.25286468    -0.57400
O223        O  0.21140525  0.79739664  0.29649944    -0.56200
C224        C  0.02258594  0.75965009  0.25423284     0.77500
O225        O  0.16186118  0.84107058  0.23972837    -0.58600
O226        O  0.17438526  0.72630260  0.18843234    -0.57100
O227        O  0.11108368  0.78597513  0.37687817    -0.57100
O228        O  0.04611148  0.71960009  0.26821003    -0.56200
C229        C  0.76377271  0.57535451  0.76955058     0.86900
C230        C  0.76190102  0.62360045  0.72939255    -0.53400
C231        C  0.80162371  0.62684567  0.69075361     0.09800
C232        C  0.83814770  0.58224026  0.69490690     0.20700
C233        C  0.76710815  0.53076145  0.72667308    -0.54100
C234        C  0.80678001  0.53423958  0.68857212     0.09900
C235        C  0.81642667  0.57750797  0.79827650    -0.53600
C236        C  0.85460905  0.58183821  0.75903630     0.10500
H237        H  0.73413440  0.65354142  0.73338216     0.15000
H238        H  0.87058939  0.58496679  0.66398672     0.00700
H239        H  0.74201818  0.49838545  0.72752083     0.15300
H240        H  0.82272126  0.57824351  0.84549667     0.15100
O241        O  0.84218537  0.45118587  0.48621981    -0.57400
C242        C  0.82421075  0.49240981  0.65186331     0.75200
O243        O  0.82881253  0.33049831  0.62606970    -0.58600
C244        C  0.86390668  0.41778929  0.45611296     0.75200
C245        C  0.97211770  0.40748441  0.60574410     0.77600
Cd246      Cd  0.86421248  0.41148001  0.58241641     1.37500
O247        O  0.84833983  0.50071306  0.60476991    -0.57400
O248        O  0.94820334  0.44782560  0.59442354    -0.56200
C249        C  0.78914948  0.33331181  0.59452079     0.77500
O250        O  0.94577129  0.36772904  0.61207514    -0.58600
O251        O  0.81826023  0.44659909  0.66724611    -0.57100
O252        O  0.88627721  0.38266834  0.48420707    -0.57100
O253        O  0.78529450  0.37115856  0.56011181    -0.56200
O254        O  0.83911823  0.72217904  0.49741776    -0.57400
C255        C  0.81754059  0.67250606  0.65751026     0.75200
O256        O  0.94454448  0.79651972  0.62957203    -0.58600
C257        C  0.86205730  0.75559261  0.46738456     0.75200
C258        C  0.78937455  0.83834223  0.60075925     0.77600
Cd259      Cd  0.86196684  0.75726444  0.59381158     1.37500
O260        O  0.83995713  0.66840677  0.60884997    -0.57400
O261        O  0.78306364  0.79858893  0.57188223    -0.56200
C262        C  0.97086352  0.75741634  0.61989757     0.77500
O263        O  0.83009177  0.84145973  0.63019827    -0.58600
O264        O  0.81470119  0.71659731  0.67811385    -0.57100
O265        O  0.88610137  0.78853877  0.49556969    -0.57100
O266        O  0.94660536  0.71887240  0.60417840    -0.56200
C267        C  0.23741009  0.57118483  0.77291775     0.86900
C268        C  0.23636823  0.52797580  0.72768069    -0.53400
C269        C  0.19580887  0.53059061  0.69012204     0.09800
C270        C  0.16106363  0.57571589  0.70031987     0.20700
C271        C  0.23487728  0.62073284  0.73523407    -0.54100
C272        C  0.19435096  0.62272377  0.69774272     0.09900
C273        C  0.18546034  0.56793205  0.80282038    -0.53600
C274        C  0.14617835  0.57033000  0.76482148     0.10500
H275        H  0.26329686  0.49701349  0.72719593     0.15000
H276        H  0.12784679  0.57752809  0.67031211     0.00700
H277        H  0.26133798  0.65179734  0.73862906     0.15300
H278        H  0.18015844  0.56435860  0.85010738     0.15100
O279        O  0.15761295  0.66282203  0.61340974    -0.57400
C280        C  0.13256776  0.74899715  0.46959270     0.75200
O281        O  0.05409370  0.79538634  0.62809994    -0.58600
C282        C  0.17791582  0.66757491  0.66331304     0.75200
C283        C  0.21164995  0.83022349  0.60661109     0.77600
Cd284      Cd  0.13586803  0.75201113  0.59656929     1.37500
O285        O  0.15196184  0.71299513  0.49934238    -0.57400
O286        O  0.21546917  0.79276304  0.57325494    -0.56200
C287        C  0.02693252  0.75653096  0.62076767     0.77500
O288        O  0.17237856  0.83205449  0.63856891    -0.58600
O289        O  0.11479444  0.78542716  0.49822248    -0.57100
O290        O  0.17966521  0.71187138  0.68333897    -0.57100
O291        O  0.05041649  0.71647488  0.60872156    -0.56200
O292        O  0.15663254  0.49961361  0.60337017    -0.57400
C293        C  0.13035451  0.42082046  0.45308796     0.75200
O294        O  0.16991923  0.32994548  0.62122977    -0.58600
C295        C  0.17921319  0.48976653  0.65129897     0.75200
C296        C  0.02783057  0.40759375  0.60552561     0.77600
Cd297      Cd  0.13516689  0.41177412  0.57964156     1.37500
O298        O  0.15501414  0.45237752  0.48290217    -0.57400
O299        O  0.05153732  0.44832756  0.59606942    -0.56200
C300        C  0.20737839  0.33091365  0.58636259     0.77500
O301        O  0.05431348  0.36768486  0.60941180    -0.58600
O302        O  0.10762896  0.38629549  0.48156973    -0.57100
O303        O  0.18278087  0.44358402  0.66616890    -0.57100
O304        O  0.21035750  0.36820970  0.55106725    -0.56200
C305        C  0.90654666  0.59263307  0.77521048    -0.04900
C306        C  0.92745196  0.63888698  0.75694387    -0.04800
C307        C  0.97941218  0.64576375  0.75818713    -0.23000
C308        C  0.01072363  0.60591604  0.77664068     0.19300
C309        C  0.98951323  0.56009148  0.79838592     0.16500
C310        C  0.93708472  0.55408608  0.79845646    -0.18000
C311        C  0.02120553  0.51985926  0.81529253    -0.19800
C312        C  0.07329989  0.52408151  0.80754007    -0.12400
C313        C  0.09366694  0.56858006  0.78328791     0.04300
C314        C  0.06277248  0.60985841  0.76962015    -0.24500
H315        H  0.90369099  0.66870241  0.73882409     0.09400
H316        H  0.99515984  0.68100186  0.74154813     0.13000
H317        H  0.92038772  0.51821872  0.81163100     0.12900
H318        H  0.00560170  0.48452352  0.83180033     0.12700
H319        H  0.09742094  0.49192544  0.81757987     0.13200
H320        H  0.07914266  0.64396948  0.75053147     0.15200
C321        C  0.27748500  0.56784546  0.82126734    -0.04900
C322        C  0.28505761  0.52046583  0.84953076    -0.04800
C323        C  0.29393480  0.51703457  0.91003557    -0.23000
C324        C  0.29445123  0.56085484  0.94359841     0.19300
C325        C  0.29522560  0.60848338  0.91485142     0.16500
C326        C  0.28830958  0.61165151  0.85362562    -0.18000
C327        C  0.29471978  0.65230403  0.94844959    -0.19800
C328        C  0.28416884  0.64903699  0.00858547    -0.12400
C329        C  0.27510397  0.60178929  0.03647797     0.04300
C330        C  0.28605043  0.55782125  0.00451842    -0.24500
H331        H  0.27704531  0.48576495  0.82695389     0.09400
H332        H  0.29421519  0.48001939  0.93128880     0.13000
H333        H  0.28283999  0.64870422  0.83373291     0.12900
H334        H  0.29626814  0.68931341  0.92726722     0.12700
H335        H  0.27624970  0.68389643  0.03088249     0.13200
H336        H  0.27941036  0.52089456  0.02419200     0.15200
C337        C  0.72482377  0.57034268  0.81867907    -0.04900
C338        C  0.71828628  0.52237304  0.84597286    -0.04800
C339        C  0.70937085  0.51774262  0.90627192    -0.23000
C340        C  0.70784174  0.56087907  0.94081179     0.19300
C341        C  0.70678323  0.60900497  0.91314301     0.16500
C342        C  0.71377478  0.61340816  0.85203905    -0.18000
C343        C  0.70645841  0.65215943  0.94771867    -0.19800
C344        C  0.71548941  0.64789370  0.00811627    -0.12400
C345        C  0.72355466  0.60020537  0.03558784     0.04300
C346        C  0.71487720  0.55675382  0.00194647    -0.24500
H347        H  0.72660021  0.48801645  0.82296246     0.09400
H348        H  0.70947170  0.48036503  0.92662354     0.13000
H349        H  0.71898594  0.65077009  0.83282124     0.12900
H350        H  0.70494645  0.68950272  0.92735320     0.12700
H351        H  0.72207337  0.68253604  0.03122899     0.13200
H352        H  0.72165696  0.51962487  0.02124205     0.15200
C353        C  0.90343957  0.57626089  0.08871656    -0.04900
C354        C  0.92514923  0.53293647  0.11453245    -0.04800
C355        C  0.97688133  0.52507517  0.11130956    -0.23000
C356        C  0.00737371  0.56124012  0.08344002     0.19300
C357        C  0.98537080  0.60332889  0.05363289     0.16500
C358        C  0.93294199  0.61007382  0.05554393    -0.18000
C359        C  0.01657011  0.63979492  0.02672730    -0.19800
C360        C  0.06895121  0.63681229  0.03398542    -0.12400
C361        C  0.09000088  0.59707769  0.06752898     0.04300
C362        C  0.05955443  0.55811719  0.08932659    -0.24500
H363        H  0.90223300  0.50614074  0.13913435     0.09400
H364        H  0.99329740  0.49238446  0.13351608     0.13000
H365        H  0.91569317  0.64345343  0.03561137     0.12900
H366        H  0.00041182  0.67203592  0.00333243     0.12700
H367        H  0.09262694  0.66699698  0.01685003     0.13200
H368        H  0.07636482  0.52725017  0.11469454     0.15200
C369        C  0.49468385  0.98858976  0.78349697    -0.04900
C370        C  0.52761976  0.00989295  0.82450313    -0.04800
C371        C  0.52661045  0.06194898  0.83357722    -0.23000
C372        C  0.49309671  0.09262365  0.80097130     0.19300
C373        C  0.45677394  0.07006576  0.76400020     0.16500
C374        C  0.45729332  0.01808681  0.75639633    -0.18000
C375        C  0.42363512  0.10009552  0.73061997    -0.19800
C376        C  0.43033646  0.15204548  0.72843302    -0.12400
C377        C  0.46914003  0.17436493  0.76083177     0.04300
C378        C  0.49832610  0.14524881  0.80012126    -0.24500
H379        H  0.55613139  0.98690401  0.84642452     0.09400
H380        H  0.55413767  0.07846684  0.86276856     0.13000
H381        H  0.43105829  0.00105432  0.72597706     0.12900
H382        H  0.39517451  0.08325169  0.70305104     0.12700
H383        H  0.40679206  0.17453634  0.69903475     0.13200
H384        H  0.52807598  0.16291509  0.82523704     0.15200
C385        C  0.50592924  0.35923005  0.02557935    -0.04900
C386        C  0.55439013  0.36762518  0.00125255    -0.04800
C387        C  0.56063165  0.37571147  0.94093691    -0.23000
C388        C  0.51867061  0.37463551  0.90358077     0.19300
C389        C  0.46970795  0.37426383  0.92802614     0.16500
C390        C  0.46359318  0.36776405  0.98898088    -0.18000
C391        C  0.42772892  0.37265548  0.89075374    -0.19800
C392        C  0.43426641  0.36298933  0.83120957    -0.12400
C393        C  0.48299892  0.35556063  0.80748869     0.04300
C394        C  0.52505453  0.36627856  0.84326031    -0.24500
H395        H  0.58823581  0.36117020  0.02697195     0.09400
H396        H  0.59857203  0.37691601  0.92308353     0.13000
H397        H  0.42590923  0.36125792  0.00586143     0.12900
H398        H  0.38976182  0.37309802  0.90856455     0.12700
H399        H  0.40072645  0.35460841  0.80603685     0.13200
H400        H  0.56293965  0.36052792  0.82688245     0.15200
C401        C  0.51062315  0.80448994  0.81820026    -0.04900
C402        C  0.55819952  0.79607840  0.84497085    -0.04800
C403        C  0.56228648  0.78752631  0.90554381    -0.23000
C404        C  0.51898486  0.78792577  0.94069933     0.19300
C405        C  0.47099318  0.78775663  0.91367193     0.16500
C406        C  0.46709938  0.79433518  0.85232120    -0.18000
C407        C  0.42770883  0.78903796  0.94886952    -0.19800
C408        C  0.43198005  0.79946269  0.00867203    -0.12400
C409        C  0.47972249  0.80777645  0.03476258     0.04300
C410        C  0.52303961  0.79637830  0.00135363    -0.24500
H411        H  0.59286957  0.80311445  0.82123167     0.09400
H412        H  0.59954197  0.78665839  0.92541724     0.13000
H413        H  0.43000144  0.80061577  0.83337903     0.12900
H414        H  0.39042450  0.78801088  0.92912499     0.12700
H415        H  0.39744978  0.80772248  0.03190674     0.13200
H416        H  0.56022516  0.80272464  0.01967062     0.15200
C417        C  0.49494996  0.99217386  0.06028668    -0.04900
C418        C  0.46106108  0.01390852  0.01959420    -0.04800
C419        C  0.46080314  0.06627385  0.01022454    -0.23000
C420        C  0.49400950  0.09669153  0.04218682     0.19300
C421        C  0.53129477  0.07371608  0.07863941     0.16500
C422        C  0.53216015  0.02157871  0.08624016    -0.18000
C423        C  0.56416039  0.10325386  0.11146686    -0.19800
C424        C  0.55700795  0.15506041  0.11291251    -0.12400
C425        C  0.51783099  0.17785675  0.08049391     0.04300
C426        C  0.48805607  0.14926886  0.04256797    -0.24500
H427        H  0.43267841  0.99098312  0.99850462     0.09400
H428        H  0.43256089  0.08310514  0.98136040     0.13000
H429        H  0.55919749  0.00419277  0.11635124     0.12900
H430        H  0.59318947  0.08604046  0.13891889     0.12700
H431        H  0.58083502  0.17710999  0.14132509     0.13200
H432        H  0.45785240  0.16729239  0.01757944     0.15200
loop_ 
_geom_bond_atom_site_label_1 
_geom_bond_atom_site_label_2 
_geom_bond_distance 
_geom_bond_site_symmetry_2 
_ccdc_geom_bond_type 
C1            C2   1.559       .  S
C1            C7   1.536       .  S
C1            C5   1.549       .  S
C1          C409   1.528       .  S
C2            H9   1.085       .  S
C2            C3   1.374       .  D
C3            C4   1.528       .  S
C3           C16   1.484       .  S
C4            C8   1.532       .  S
C4            C6   1.529       .  S
C4           H10   1.112       .  S
C5           H11   1.085       .  S
C5            C6   1.367       .  D
C6           C29   1.476       .  S
C7           H12   1.088   1_554  S
C7            C8   1.351       .  D
C8          C417   1.460       .  S
O13          C16   1.265       .  A
O13         Cd18   2.471       .  S
C14          O23   1.262       .  A
C14          O19   1.267       .  A
C14          C92   1.468       .  S
O15          C21   1.271       .  A
O15         Cd18   2.523       .  S
C16          O24   1.267       .  A
C17          O22   1.268       .  A
C17          O20   1.263       .  A
C17          C55   1.479       .  S
Cd18         O25   2.406       .  S
Cd18         O24   2.532       .  S
Cd18         O23   2.449       .  S
Cd18         O19   2.502       .  S
Cd18         O22   2.541   1_565  S
Cd18         O20   2.454   1_565  S
C21          O25   1.264       .  A
C21         C173   1.470       .  S
O26          C29   1.264       .  A
O26         Cd31   2.472       .  S
C27          O36   1.263       .  A
C27          O32   1.266       .  A
C27         C103   1.465       .  S
O28          C34   1.269       .  A
O28         Cd31   2.558   1_545  S
C29          O37   1.265       .  A
C30          O35   1.271       .  A
C30          O33   1.264       .  A
C30         C220   1.472       .  S
Cd31         O38   2.443   1_565  S
Cd31         O37   2.490       .  S
Cd31         O36   2.446       .  S
Cd31         O32   2.492       .  S
Cd31         O35   2.521       .  S
Cd31         O33   2.422       .  S
C34          O38   1.262       .  A
C34          C72   1.479       .  S
C39          C40   1.552       .  S
C39          C45   1.540       .  S
C39          C43   1.551       .  S
C39         C385   1.524       .  S
C40          H47   1.085       .  S
C40          C41   1.370       .  D
C41          C42   1.530       .  S
C41          C65   1.476       .  S
C42          C46   1.525       .  S
C42          C44   1.525       .  S
C42          H48   1.112       .  S
C43          H49   1.085       .  S
C43          C44   1.366       .  D
C44          C52   1.472       .  S
C45          H50   1.087       .  S
C45          C46   1.354       .  D
C46         C425   1.459       .  S
O51          C54   1.265       .  A
O51         Cd56   2.474       .  S
C52          O61   1.266       .  A
C52          O57   1.263       .  A
O53          C59   1.272       .  A
O53         Cd56   2.534       .  S
C54          O62   1.265       .  A
C54         C141   1.464       .  S
C55          O60   1.269       .  A
C55          O58   1.262       .  A
Cd56         O63   2.395       .  S
Cd56         O62   2.447       .  S
Cd56         O61   2.493       .  S
Cd56         O57   2.450       .  S
Cd56         O60   2.549       .  S
Cd56         O58   2.459       .  S
C59          O63   1.263       .  A
C59         C182   1.470       .  S
O64          C67   1.266       .  A
O64         Cd69   2.478       .  S
C65          O74   1.267       .  A
C65          O70   1.263       .  A
O66          C72   1.269       .  A
O66         Cd69   2.555       .  S
C67          O75   1.263       .  A
C67         C130   1.461       .  S
C68          O73   1.271       .  A
C68          O71   1.264       .  A
C68         C211   1.472       .  S
Cd69         O76   2.438       .  S
Cd69         O75   2.430       .  S
Cd69         O74   2.517       .  S
Cd69         O70   2.443       .  S
Cd69         O73   2.523       .  S
Cd69         O71   2.417       .  S
C72          O76   1.261       .  A
C77          C78   1.555       .  S
C77          C83   1.536       .  S
C77          C81   1.550       .  S
C77         C401   1.527       .  S
C78          H85   1.085       .  S
C78          C79   1.373       .  D
C79          C80   1.526       .  S
C79         C105   1.476       .  S
C80          C84   1.530       .  S
C80          C82   1.528       .  S
C80          H86   1.112       .  S
C81          H87   1.084       .  S
C81          C82   1.367       .  D
C82          C90   1.475       .  S
C83          H88   1.088       .  S
C83          C84   1.352       .  D
C84         C369   1.461       .  S
O89          C92   1.264       .  A
O89         Cd94   2.497       .  S
C90          O99   1.265       .  A
C90          O95   1.264       .  A
O91          C97   1.270       .  A
O91         Cd94   2.527       .  S
C92         O100   1.263       .  A
C93          O98   1.267       .  A
C93          O96   1.262       .  A
C93         C144   1.473       .  S
Cd94        O101   2.405       .  S
Cd94        O100   2.465       .  S
Cd94         O99   2.486       .  S
Cd94         O95   2.464       .  S
Cd94         O98   2.534   1_565  S
Cd94         O96   2.445   1_565  S
C97         O101   1.264       .  A
C97         C258   1.470       .  S
O102        C105   1.264       .  A
O102       Cd107   2.461       .  S
C103        O112   1.263       .  A
C103        O108   1.266       .  A
O104        C110   1.271       .  A
O104       Cd107   2.525       .  S
C105        O113   1.266       .  A
C106        O111   1.269       .  A
C106        O109   1.262       .  A
C106        C131   1.482       .  S
Cd107       O114   2.416       .  S
Cd107       O113   2.503       .  S
Cd107       O112   2.445       .  S
Cd107       O108   2.488       .  S
Cd107       O111   2.555   1_565  S
Cd107       O109   2.458   1_565  S
C110        O114   1.264       .  A
C110        C283   1.473       .  S
C115        C116   1.552       .  S
C115        C121   1.540       .  S
C115        C119   1.550       .  S
C115        C393   1.524       .  S
C116        H123   1.084       .  S
C116        C117   1.371       .  D
C117        C118   1.530       .  S
C117        C143   1.477       .  S
C118        C122   1.526       .  S
C118        C120   1.521       .  S
C118        H124   1.112       .  S
C119        H125   1.085       .  S
C119        C120   1.366       .  D
C120        C128   1.466       .  S
C121        H126   1.087       .  S
C121        C122   1.353       .  D
C122        C377   1.460       .  S
O127        C130   1.265       .  A
O127       Cd132   2.478       .  S
C128        O137   1.265       .  A
C128        O133   1.263       .  A
O129        C135   1.270       .  A
O129       Cd132   2.517       .  S
C130        O138   1.264       .  A
C131        O136   1.268       .  A
C131        O134   1.263       .  A
Cd132       O139   2.399       .  S
Cd132       O138   2.437       .  S
Cd132       O137   2.472       .  S
Cd132       O133   2.446       .  S
Cd132       O136   2.552       .  S
Cd132       O134   2.463       .  S
C135        O139   1.263       .  A
C135        C300   1.466       .  S
O140        C143   1.264       .  A
O140       Cd145   2.445       .  S
C141        O150   1.262       .  A
C141        O146   1.266       .  A
O142        C148   1.271       .  A
O142       Cd145   2.516       .  S
C143        O151   1.266       .  A
C144        O149   1.267       .  A
C144        O147   1.261       .  A
Cd145       O152   2.403       .  S
Cd145       O151   2.514       .  S
Cd145       O150   2.451       .  S
Cd145       O146   2.489       .  S
Cd145       O149   2.526       .  S
Cd145       O147   2.440       .  S
C148        O152   1.264       .  A
C148        C249   1.469       .  S
C153        C154   1.557       .  S
C153        C159   1.538       .  S
C153        C157   1.549       .  S
C153        C345   1.528       .  S
C154        H161   1.085       .  S
C154        C155   1.373       .  D
C155        C156   1.526       .  S
C155        C179   1.477       .  S
C156        C160   1.526       .  S
C156        C158   1.527       .  S
C156        H162   1.112       .  S
C157        H163   1.084       .  S
C157        C158   1.366       .  D
C158        C166   1.474       .  S
C159        H164   1.087       .  S
C159        C160   1.354       .  D
C160        C353   1.458       .  S
O165        C168   1.266       .  A
O165       Cd170   2.476       .  S
C166        O175   1.265       .  A
C166        O171   1.265       .  A
O167        C173   1.271       .  A
O167       Cd170   2.527       .  S
C168        O176   1.263       .  A
C168        C257   1.463       .  S
C169        O174   1.269       .  A
C169        O172   1.263       .  A
C169        C224   1.477   1_655  S
Cd170       O177   2.408       .  S
Cd170       O176   2.456       .  S
Cd170       O175   2.479       .  S
Cd170       O171   2.467       .  S
Cd170       O174   2.528       .  S
Cd170       O172   2.450       .  S
C173        O177   1.264       .  A
O178        C181   1.265       .  A
O178       Cd183   2.484       .  S
C179        O188   1.267       .  A
C179        O184   1.264       .  A
O180        C186   1.267       .  A
O180       Cd183   2.532       .  S
C181        O189   1.263       .  A
C181        C244   1.464       .  S
C182        O187   1.271       .  A
C182        O185   1.263       .  A
Cd183       O190   2.488       .  S
Cd183       O189   2.450       .  S
Cd183       O188   2.518       .  S
Cd183       O184   2.444       .  S
Cd183       O187   2.535       .  S
Cd183       O185   2.402       .  S
C186        O190   1.263       .  A
C186        C207   1.482   1_655  S
C191        C192   1.551       .  S
C191        C197   1.538       .  S
C191        C195   1.557       .  S
C191        C329   1.528       .  S
C192        H199   1.085       .  S
C192        C193   1.370       .  D
C193        C194   1.525       .  S
C193        C217   1.472       .  S
C194        C198   1.528       .  S
C194        C196   1.524       .  S
C194        H200   1.112       .  S
C195        H201   1.084       .  S
C195        C196   1.371       .  D
C196        C204   1.477       .  S
C197        H202   1.087       .  S
C197        C198   1.352       .  D
C198        C361   1.458       .  S
O203        C206   1.266       .  A
O203       Cd208   2.496       .  S
C204        O213   1.266       .  A
C204        O209   1.265       .  A
O205        C211   1.270       .  A
O205       Cd208   2.526       .  S
C206        O214   1.263       .  A
C206        C293   1.467       .  S
C207        O212   1.267       .  A
C207        O210   1.264       .  A
Cd208       O215   2.421       .  S
Cd208       O214   2.457       .  S
Cd208       O213   2.506       .  S
Cd208       O209   2.460       .  S
Cd208       O212   2.528       .  S
Cd208       O210   2.488       .  S
C211        O215   1.263       .  A
O216        C219   1.267       .  A
O216       Cd221   2.499       .  S
C217        O226   1.264       .  A
C217        O222   1.265       .  A
O218        C224   1.268       .  A
O218       Cd221   2.530       .  S
C219        O227   1.263       .  A
C219        C280   1.468       .  S
C220        O225   1.270       .  A
C220        O223   1.264       .  A
Cd221       O228   2.465       .  S
Cd221       O227   2.449       .  S
Cd221       O226   2.487       .  S
Cd221       O222   2.463       .  S
Cd221       O225   2.519       .  S
Cd221       O223   2.425       .  S
C224        O228   1.263       .  A
C229        C230   1.556       .  S
C229        C235   1.539       .  S
C229        C233   1.547       .  S
C229        C337   1.526       .  S
C230        H237   1.085       .  S
C230        C231   1.373       .  D
C231        C232   1.525       .  S
C231        C255   1.476       .  S
C232        C236   1.522       .  S
C232        C234   1.527       .  S
C232        H238   1.112       .  S
C233        H239   1.084       .  S
C233        C234   1.365       .  D
C234        C242   1.473       .  S
C235        H240   1.087       .  S
C235        C236   1.353       .  D
C236        C305   1.452       .  S
O241        C244   1.266       .  A
O241       Cd246   2.478       .  S
C242        O251   1.265       .  A
C242        O247   1.264       .  A
O243        C249   1.272       .  A
O243       Cd246   2.527       .  S
C244        O252   1.264       .  A
C245        O250   1.269       .  A
C245        O248   1.262       .  A
C245        C296   1.474   1_655  S
Cd246       O253   2.404       .  S
Cd246       O252   2.445       .  S
Cd246       O251   2.477       .  S
Cd246       O247   2.460       .  S
Cd246       O250   2.532       .  S
Cd246       O248   2.440       .  S
C249        O253   1.263       .  A
O254        C257   1.264       .  A
O254       Cd259   2.472       .  S
C255        O264   1.267       .  A
C255        O260   1.263       .  A
O256        C262   1.269       .  A
O256       Cd259   2.559       .  S
C257        O265   1.264       .  A
C258        O263   1.271       .  A
C258        O261   1.262       .  A
Cd259       O266   2.466       .  S
Cd259       O265   2.455       .  S
Cd259       O264   2.517       .  S
Cd259       O260   2.441       .  S
Cd259       O263   2.534       .  S
Cd259       O261   2.402       .  S
C262        O266   1.263       .  A
C262        C287   1.484   1_655  S
C267        C268   1.553       .  S
C267        C273   1.537       .  S
C267        C271   1.554       .  S
C267        C321   1.528       .  S
C268        H275   1.085       .  S
C268        C269   1.371       .  D
C269        C270   1.527       .  S
C269        C295   1.475       .  S
C270        C274   1.524       .  S
C270        C272   1.525       .  S
C270        H276   1.112       .  S
C271        H277   1.084       .  S
C271        C272   1.369       .  D
C272        C282   1.474       .  S
C273        H278   1.087       .  S
C273        C274   1.351       .  D
C274        C313   1.453       .  S
O279        C282   1.264       .  A
O279       Cd284   2.451       .  S
C280        O289   1.264       .  A
C280        O285   1.266       .  A
O281        C287   1.269       .  A
O281       Cd284   2.557       .  S
C282        O290   1.266       .  A
C283        O288   1.271       .  A
C283        O286   1.263       .  A
Cd284       O291   2.464       .  S
Cd284       O290   2.505       .  S
Cd284       O289   2.453       .  S
Cd284       O285   2.495       .  S
Cd284       O288   2.532       .  S
Cd284       O286   2.423       .  S
C287        O291   1.262       .  A
O292        C295   1.265       .  A
O292       Cd297   2.463       .  S
C293        O302   1.264       .  A
C293        O298   1.267       .  A
O294        C300   1.271       .  A
O294       Cd297   2.518       .  S
C295        O303   1.265       .  A
C296        O301   1.268       .  A
C296        O299   1.263       .  A
Cd297       O304   2.394       .  S
Cd297       O303   2.495       .  S
Cd297       O302   2.453       .  S
Cd297       O298   2.488       .  S
Cd297       O301   2.526       .  S
Cd297       O299   2.445       .  S
C300        O304   1.263       .  A
C305        C306   1.400       .  A
C305        C310   1.396       .  A
C306        C307   1.387       .  A
C306        H315   1.083       .  S
C307        C308   1.398   1_655  A
C307        H316   1.084       .  S
C308        C314   1.390       .  A
C308        C309   1.418   1_455  A
C309        C311   1.402   1_655  A
C309        C310   1.396       .  A
C310        H317   1.085       .  S
C311        C312   1.394       .  A
C311        H318   1.084       .  S
C312        C313   1.400       .  A
C312        H319   1.083       .  S
C313        C314   1.393       .  A
C314        H320   1.085       .  S
C321        C322   1.412       .  A
C321        C326   1.414       .  A
C322        C323   1.397       .  A
C322        H331   1.081       .  S
C323        C324   1.400       .  A
C323        H332   1.084       .  S
C324        C330   1.405   1_556  A
C324        C325   1.409       .  A
C325        C327   1.401       .  A
C325        C326   1.405       .  A
C326        H333   1.081       .  S
C327        C328   1.398   1_556  A
C327        H334   1.084       .  S
C328        C329   1.412       .  A
C328        H335   1.081       .  S
C329        C330   1.413       .  A
C330        H336   1.082       .  S
C337        C338   1.413       .  A
C337        C342   1.411       .  A
C338        C339   1.395       .  A
C338        H347   1.080       .  S
C339        C340   1.398       .  A
C339        H348   1.084       .  S
C340        C346   1.405   1_556  A
C340        C341   1.410       .  A
C341        C343   1.399       .  A
C341        C342   1.405       .  A
C342        H349   1.082       .  S
C343        C344   1.397   1_556  A
C343        H350   1.084       .  S
C344        C345   1.413       .  A
C344        H351   1.079       .  S
C345        C346   1.412       .  A
C346        H352   1.083       .  S
C353        C354   1.400       .  A
C353        C358   1.399       .  A
C354        C355   1.386       .  A
C354        H363   1.082       .  S
C355        C356   1.396   1_655  A
C355        H364   1.083       .  S
C356        C362   1.389       .  A
C356        C357   1.417   1_455  A
C357        C359   1.403   1_655  A
C357        C358   1.399       .  A
C358        H365   1.085       .  S
C359        C360   1.397       .  A
C359        H366   1.084       .  S
C360        C361   1.401       .  A
C360        H367   1.083       .  S
C361        C362   1.394       .  A
C362        H368   1.085       .  S
C369        C370   1.402   1_565  A
C369        C374   1.395   1_565  A
C370        C371   1.397       .  A
C370        H379   1.083   1_545  S
C371        C372   1.403       .  A
C371        H380   1.083       .  S
C372        C378   1.399       .  A
C372        C373   1.416       .  A
C373        C375   1.396       .  A
C373        C374   1.389       .  A
C374        H381   1.084       .  S
C375        C376   1.386       .  A
C375        H382   1.081       .  S
C376        C377   1.401       .  A
C376        H383   1.082       .  S
C377        C378   1.399       .  A
C378        H384   1.084       .  S
C385        C386   1.414       .  A
C385        C390   1.410   1_554  A
C386        C387   1.395   1_554  A
C386        H395   1.080       .  S
C387        C388   1.398       .  A
C387        H396   1.084       .  S
C388        C394   1.404       .  A
C388        C389   1.411       .  A
C389        C391   1.397       .  A
C389        C390   1.404       .  A
C390        H397   1.082   1_556  S
C391        C392   1.394       .  A
C391        H398   1.084       .  S
C392        C393   1.413       .  A
C392        H399   1.081       .  S
C393        C394   1.410       .  A
C394        H400   1.082       .  S
C401        C402   1.413       .  A
C401        C406   1.413       .  A
C402        C403   1.396       .  A
C402        H411   1.080       .  S
C403        C404   1.399       .  A
C403        H412   1.084       .  S
C404        C410   1.406   1_556  A
C404        C405   1.410       .  A
C405        C407   1.399       .  A
C405        C406   1.407       .  A
C406        H413   1.083       .  S
C407        C408   1.398   1_556  A
C407        H414   1.084       .  S
C408        C409   1.414       .  A
C408        H415   1.080       .  S
C409        C410   1.412       .  A
C410        H416   1.082       .  S
C417        C418   1.402   1_565  A
C417        C422   1.393   1_565  A
C418        C419   1.398       .  A
C418        H427   1.083   1_544  S
C419        C420   1.404       .  A
C419        H428   1.084   1_554  S
C420        C426   1.400       .  A
C420        C421   1.417       .  A
C421        C423   1.395       .  A
C421        C422   1.387       .  A
C422        H429   1.085       .  S
C423        C424   1.384       .  A
C423        H430   1.083       .  S
C424        C425   1.400       .  A
C424        H431   1.081       .  S
C425        C426   1.400       .  A
C426        H432   1.084       .  S
