geometry optimzed in LAMMPS
_audit_creation_date              2020-11-30 
_audit_creation_method            'lammps2cif' 
_symmetry_space_group_name_H-M    'P1' 
_symmetry_Int_Tables_number       1 
_symmetry_cell_setting            triclinic 
loop_ 
_symmetry_equiv_pos_as_xyz 
  x,y,z 
_cell_length_a                    26.696966594749085 
_cell_length_b                    26.635801968010224 
_cell_length_c                    31.4976431861606 
_cell_angle_alpha                 89.9038660745418 
_cell_angle_beta                  90.08253491247268 
_cell_angle_gamma                 89.84183558121732 
loop_ 
_atom_site_label 
_atom_site_type_symbol 
_atom_site_fract_x 
_atom_site_fract_y 
_atom_site_fract_z 
_atom_site_charge 
O1          O  0.36829362  0.48976308  0.42323727    -0.74960
O2          O  0.35404381  0.06565506  0.45501307    -0.53870
C3          C  0.34108774  0.02807956  0.43126348     0.78770
O4          O  0.48623267  0.37842299  0.58095471    -0.59560
O5          O  0.05904199  0.36149764  0.54545128    -0.52590
C6          C  0.02317278  0.35003284  0.57141103     0.70780
O7          O  0.36840007  0.49027547  0.57742280    -0.74120
O8          O  0.35411556  0.06609679  0.54527192    -0.54680
C9          C  0.34120759  0.02863214  0.56919994     0.76790
O10         O  0.48508844  0.37845294  0.42000316    -0.59260
O11         O  0.05853831  0.36187280  0.45493818    -0.52380
C12         C  0.02231564  0.35027644  0.42928054     0.73380
Zr13       Zr  0.45017844  0.45802950  0.43811415     2.54710
O14         O  0.38735062  0.39208866  0.43491185    -0.79830
O15         O  0.45601358  0.46652325  0.36128069    -0.93240
Zr16       Zr  0.45007535  0.45774252  0.56263497     2.64680
O17         O  0.38505200  0.39372459  0.56579828    -0.98200
O18         O  0.45648412  0.46595855  0.63944728    -0.80260
O19         O  0.41513619  0.49215966  0.50029466    -0.83620
O20         O  0.48425033  0.42262312  0.50041204    -2.18330
O21         O  0.13019782  0.02368186  0.41920258    -0.67010
O22         O  0.14768266  0.45111521  0.45525767    -0.51570
C23         C  0.15886185  0.48699797  0.42902892     0.71760
O24         O  0.01940406  0.14071868  0.57712806    -0.59920
O25         O  0.44356953  0.15511867  0.54533021    -0.51890
C26         C  0.48117198  0.16801447  0.56901847     0.73570
O27         O  0.13077074  0.02410272  0.58106240    -0.71310
O28         O  0.14761009  0.45100574  0.54572322    -0.49990
C29         C  0.15915637  0.48710594  0.57155558     0.74950
O30         O  0.01892610  0.14058754  0.42267861    -0.66640
O31         O  0.44370229  0.15535097  0.45515575    -0.53840
C32         C  0.48098393  0.16805275  0.43107162     0.73330
Zr33       Zr  0.05096997  0.05898910  0.43802299     2.77540
O34         O  0.11453292  0.12442682  0.43433371    -0.97390
O35         O  0.04076982  0.05243126  0.36140779    -0.78210
Zr36       Zr  0.05090901  0.05857654  0.56278933     2.70070
O37         O  0.11646186  0.12146271  0.56896134    -0.79460
O38         O  0.03953761  0.05103904  0.63920445    -0.98540
Zr39       Zr  0.42872510  0.08047850  0.50021688     2.21500
Zr40       Zr  0.07285645  0.43650012  0.50036071     2.11130
O41         O  0.08640543  0.02519025  0.50040730    -2.47230
O42         O  0.01690072  0.09382810  0.50038506    -0.79250
O43         O  0.03766603  0.47137295  0.43649893    -0.71450
O44         O  0.46354123  0.04531297  0.56414587    -2.32400
O45         O  0.46360300  0.04558582  0.43645447    -2.28610
O46         O  0.03763923  0.47100043  0.56421758    -0.73210
H47         H  0.47673704  0.38720372  0.50039964     0.78790
H48         H  0.44871059  0.06023759  0.58909850     0.79880
H49         H  0.12170562  0.03289955  0.50041048     0.82100
H50         H  0.44872597  0.06055674  0.41146516     0.79710
H51         H  0.43124878  0.49169616  0.64709090     0.42750
H52         H  0.05538793  0.01855827  0.64671171     0.41720
H53         H  0.12340711  0.13164733  0.53930102     0.41400
H54         H  0.14150107  0.11342907  0.45389305     0.39330
H55         H  0.05467279  0.01903410  0.35415087     0.42460
H56         H  0.43337502  0.49477749  0.35403557     0.37240
H57         H  0.37412020  0.38994234  0.46421283     0.43360
H58         H  0.39626572  0.36687252  0.54626309     0.39780
H59         H  0.12922871  0.12156860  0.40558614     0.44700
H60         H  0.43877730  0.43644112  0.35008158     0.43420
H61         H  0.38790691  0.37883054  0.59453132     0.43550
H62         H  0.06219129  0.07666131  0.65135672     0.43910
C63         C  0.49630053  0.25961824  0.34218813     0.03460
C64         C  0.48021940  0.21769716  0.36531713    -0.12690
C65         C  0.98316369  0.21703674  0.40979546     0.00960
C66         C  0.00315073  0.25884998  0.43111293    -0.11210
C67         C  0.01936989  0.30121038  0.40828270     0.03460
C68         C  0.51577486  0.30108859  0.36384045    -0.10630
H69         H  0.46665402  0.18484103  0.34863057     0.09050
H70         H  0.00557728  0.25861822  0.46525274     0.06580
H71         H  0.52618035  0.33443689  0.34615456     0.06430
C72         C  0.24998597  0.01314235  0.34188079     0.03460
C73         C  0.29175891  0.02910250  0.36527642    -0.12690
C74         C  0.29221128  0.02616725  0.40980569     0.00960
C75         C  0.25025403  0.00639469  0.43102320    -0.11210
C76         C  0.20800409  0.99029104  0.40809804     0.03460
C77         C  0.20843618  0.99378794  0.36362898    -0.10630
H78         H  0.32522266  0.04119875  0.34874300     0.09050
H79         H  0.25035063  0.00390159  0.46516747     0.06580
H80         H  0.17493458  0.98399597  0.34601080     0.06430
C81         C  0.25062650  0.01315607  0.65835040     0.03460
C82         C  0.29182432  0.03031714  0.63500566    -0.12690
C83         C  0.29233442  0.02687350  0.59052466     0.00960
C84         C  0.25048492  0.00663835  0.56938369    -0.11210
C85         C  0.20843589  0.99019337  0.59236996     0.03460
C86         C  0.20921734  0.99323265  0.63684293    -0.10630
H87         H  0.32482894  0.04356828  0.65163224     0.09050
H88         H  0.25048547  0.00410747  0.53524852     0.06580
H89         H  0.17612659  0.98276925  0.65469837     0.06430
C90         C  0.49578118  0.25910099  0.65815182     0.03460
C91         C  0.47922241  0.21761171  0.63467930    -0.12690
C92         C  0.48324935  0.21695473  0.59026956     0.00960
C93         C  0.50402367  0.25862109  0.56923484    -0.11210
C94         C  0.52015029  0.30077328  0.59226574     0.03460
C95         C  0.51631365  0.30031232  0.63666592    -0.10630
H96         H  0.46445880  0.18499621  0.65099433     0.09050
H97         H  0.00709068  0.25846643  0.53513869     0.06580
H98         H  0.52732676  0.33337151  0.65438883     0.06430
C99         C  0.24257660  0.02263342  0.15799760     0.03460
C100        C  0.25968524  0.48223891  0.13342641    -0.12690
C101        C  0.25493594  0.48271639  0.08913006     0.00960
C102        C  0.23335070  0.02480564  0.06909678    -0.11210
C103        C  0.21766314  0.06653338  0.09299899     0.03460
C104        C  0.22223597  0.06488637  0.13748636    -0.10630
H105        H  0.27470260  0.44905991  0.14890965     0.09050
H106        H  0.22951072  0.02539575  0.03505178     0.06580
H107        H  0.21126519  0.09735659  0.15602169     0.06430
O108        O  0.21731036  0.40767026  0.92459299    -0.74960
O109        O  0.29408855  0.42027671  0.95513529    -0.53870
C110        C  0.25605736  0.43424570  0.93229560     0.78770
O111        O  0.10526305  0.29071270  0.07958325    -0.59560
O112        O  0.08940894  0.21688648  0.04503697    -0.52590
C113        C  0.07742981  0.25333918  0.07029749     0.70780
O114        O  0.21745774  0.40760301  0.07502370    -0.74120
O115        O  0.29424421  0.42009572  0.04462697    -0.54680
C116        C  0.25629376  0.43402060  0.06745817     0.76790
O117        O  0.10485468  0.29094493  0.92037894    -0.59260
O118        O  0.08938637  0.21689549  0.95496992    -0.52380
C119        C  0.07716253  0.25342341  0.92973334     0.73380
Zr120      Zr  0.18520970  0.32522671  0.93751736     2.54710
O121        O  0.11989924  0.38894555  0.93281460    -0.79830
O122        O  0.19435375  0.31943874  0.86076231    -0.93240
Zr123      Zr  0.18513813  0.32554749  0.06190133     2.64680
O124        O  0.12195704  0.39169880  0.06558699    -0.98200
O125        O  0.19412755  0.31940405  0.13868487    -0.80260
O126        O  0.22005393  0.35966086  0.99964304    -0.83620
O127        O  0.15002631  0.29131126  0.99978726    -2.18330
O128        O  0.24897973  0.14462451  0.91775238    -0.67010
O129        O  0.17742119  0.12734852  0.95475207    -0.51570
C130        C  0.21251057  0.11609921  0.92789660     0.71760
O131        O  0.36660651  0.25434628  0.07864157    -0.59920
O132        O  0.38268799  0.32894826  0.04535485    -0.51890
C133        C  0.39458931  0.29176335  0.07013353     0.73570
O134        O  0.25039650  0.14469708  0.08260946    -0.71310
O135        O  0.17854083  0.12746463  0.04584312    -0.49990
C136        C  0.21394706  0.11615985  0.07255628     0.74950
O137        O  0.36631020  0.25511851  0.92086725    -0.66640
O138        O  0.38263427  0.32933771  0.95454277    -0.53840
C139        C  0.39438255  0.29244935  0.92955180     0.73330
Zr140      Zr  0.28550771  0.22299508  0.93761717     2.77540
O141        O  0.35009367  0.15816835  0.93508555    -0.97390
O142        O  0.27929101  0.23256613  0.86089473    -0.78210
Zr143      Zr  0.28529768  0.22343616  0.06256872     2.70070
O144        O  0.34754384  0.15672429  0.06719337    -0.79460
O145        O  0.27871856  0.23466226  0.13905354    -0.98540
Zr146      Zr  0.30821492  0.34502522  0.99985897     2.21500
Zr147      Zr  0.16385941  0.20235530  0.00009667     2.11130
O148        O  0.25209250  0.18780200  0.00015039    -2.47230
O149        O  0.32089230  0.25654907  0.00007129    -0.79250
O150        O  0.19822462  0.23737628  0.93613353    -0.71450
O151        O  0.27251069  0.31109504  0.06372844    -2.32400
O152        O  0.27257576  0.31070581  0.93607725    -2.28610
O153        O  0.19806918  0.23767529  0.06391670    -0.73210
H154        H  0.11472050  0.29915300  0.99976872     0.78790
H155        H  0.28742771  0.32588663  0.08870285     0.79880
H156        H  0.25952977  0.15231601  0.00026054     0.82100
H157        H  0.28751136  0.32547293  0.91109801     0.79710
H158        H  0.21814081  0.34618652  0.14631882     0.42750
H159        H  0.24547297  0.22083917  0.14649776     0.41720
H160        H  0.35854905  0.15154819  0.03750861     0.41400
H161        H  0.33809865  0.13109020  0.95406685     0.39330
H162        H  0.24546203  0.22003089  0.85365641     0.42460
H163        H  0.22194278  0.34277092  0.85372597     0.37240
H164        H  0.11630609  0.40150094  0.96223313     0.43360
H165        H  0.09514771  0.38130569  0.04572563     0.39780
H166        H  0.34792110  0.14388108  0.90613722     0.44700
H167        H  0.16395194  0.33604539  0.84933544     0.43420
H168        H  0.10692349  0.38858618  0.09419050     0.43550
H169        H  0.30294768  0.21025817  0.15107895     0.43910
C170        C  0.48545109  0.26800216  0.15873543     0.03460
C171        C  0.02796565  0.25341592  0.13571122    -0.12690
C172        C  0.02853643  0.25537168  0.09129396     0.00960
C173        C  0.48625906  0.27359969  0.06944309    -0.11210
C174        C  0.44330270  0.28866481  0.09184187     0.03460
C175        C  0.44310946  0.28508236  0.13640991    -0.10630
H176        H  0.06188942  0.24269569  0.15242807     0.09050
H177        H  0.48668308  0.27571953  0.03526245     0.06580
H178        H  0.40879764  0.29311754  0.15347664     0.06430
C179        C  0.24212655  0.02408662  0.84213923     0.03460
C180        C  0.26001969  0.48377786  0.86677839    -0.12690
C181        C  0.25445868  0.48332071  0.91098726     0.00960
C182        C  0.23221582  0.02482548  0.93115198    -0.11210
C183        C  0.21585575  0.06652277  0.90741403     0.03460
C184        C  0.21980608  0.06516185  0.86290671    -0.10630
H185        H  0.27631881  0.45119950  0.85148177     0.09050
H186        H  0.22830389  0.02496409  0.96518399     0.06580
H187        H  0.20674684  0.09719423  0.84476548     0.06430
C188        C  0.48500299  0.26810094  0.84144608     0.03460
C189        C  0.02722754  0.25260694  0.86447133    -0.12690
C190        C  0.02811909  0.25529298  0.90884381     0.00960
C191        C  0.48604262  0.27407512  0.93054893    -0.11210
C192        C  0.44315566  0.28949715  0.90802053     0.03460
C193        C  0.44307580  0.28631044  0.86345949    -0.10630
H194        H  0.06069278  0.24082982  0.84768545     0.09050
H195        H  0.48656457  0.27635426  0.96471552     0.06580
H196        H  0.40917146  0.29544674  0.84606229     0.06430
C197        C  0.47169685  0.30309796  0.72515025    -0.20970
C198        C  0.49102002  0.26016080  0.70503267    -0.09010
C199        C  0.00695186  0.21933910  0.73006689     0.29840
C200        C  0.00390722  0.22184680  0.77429157    -0.20970
C201        C  0.48519498  0.26504983  0.79443636    -0.09030
C202        C  0.46887244  0.30569560  0.76937750     0.29850
F203        F  0.45209184  0.34871150  0.78758926    -0.19550
H204        H  0.45904147  0.33493560  0.70652803     0.18220
H205        H  0.01665464  0.19005195  0.79291797     0.18220
F206        F  0.02729159  0.17782233  0.71195076    -0.19540
C207        C  0.25944705  0.06163546  0.72596645    -0.20970
C208        C  0.25046273  0.01590748  0.70528219    -0.09010
C209        C  0.24012409  0.47301234  0.72963092     0.29840
C210        C  0.23721347  0.47620500  0.77378083    -0.20970
C211        C  0.24550438  0.02202731  0.79486288    -0.09030
C212        C  0.25714492  0.06484261  0.77030860     0.29850
F213        F  0.26742904  0.10955730  0.78893445    -0.19550
H214        H  0.26776346  0.09505644  0.70766913     0.18220
H215        H  0.22776693  0.44263024  0.79141897     0.18220
F216        F  0.23351600  0.42776011  0.71068849    -0.19540
C217        C  0.26385130  0.06092017  0.22849590    -0.20970
C218        C  0.24527070  0.02014433  0.20505629    -0.09010
C219        C  0.22878355  0.47714701  0.22693736     0.29840
C220        C  0.23111191  0.47507789  0.27118413    -0.20970
C221        C  0.24955047  0.01580016  0.29472992    -0.09030
C222        C  0.26604266  0.05889685  0.27289388     0.29850
F223        F  0.28276643  0.09966776  0.29441553    -0.19550
H224        H  0.27679576  0.09440209  0.21237242     0.18220
H225        H  0.21831114  0.44143234  0.28714361     0.18220
F226        F  0.20889671  0.43762213  0.20567711    -0.19540
C227        C  0.00989941  0.22453339  0.22636945    -0.20970
C228        C  0.48582830  0.26503729  0.20594189    -0.09010
C229        C  0.46429278  0.30317324  0.23103701     0.29840
C230        C  0.46744049  0.30083230  0.27529304    -0.20970
C231        C  0.49204748  0.26068626  0.29540594    -0.09030
C232        C  0.01328659  0.22245554  0.27059053     0.29850
F233        F  0.03885557  0.18404205  0.28903843    -0.19550
H234        H  0.02648059  0.19442291  0.20804707     0.18220
H235        H  0.45089013  0.33067419  0.29398465     0.18220
F236        F  0.44191209  0.34374965  0.21298823    -0.19540
O237        O  0.36829359  0.98976304  0.42323732    -0.74960
O238        O  0.35404383  0.56565508  0.45501306    -0.53870
C239        C  0.34108777  0.52807960  0.43126345     0.78770
O240        O  0.48623267  0.87842298  0.58095471    -0.59560
O241        O  0.05904196  0.86149762  0.54545128    -0.52590
C242        C  0.02317275  0.85003284  0.57141104     0.70780
O243        O  0.36840004  0.99027544  0.57742276    -0.74120
O244        O  0.35411558  0.56609680  0.54527192    -0.54680
C245        C  0.34120762  0.52863217  0.56919996     0.76790
O246        O  0.48508845  0.87845294  0.42000317    -0.59260
O247        O  0.05853828  0.86187279  0.45493817    -0.52380
C248        C  0.02231561  0.85027643  0.42928053     0.73380
Zr249      Zr  0.45017843  0.95802949  0.43811416     2.54710
O250        O  0.38735063  0.89208863  0.43491182    -0.79830
O251        O  0.45601355  0.96652327  0.36128069    -0.93240
Zr252      Zr  0.45007534  0.95774251  0.56263497     2.64680
O253        O  0.38505200  0.89372456  0.56579829    -0.98200
O254        O  0.45648407  0.96595856  0.63944728    -0.80260
O255        O  0.41513618  0.99215965  0.50029466    -0.83620
O256        O  0.48425033  0.92262311  0.50041204    -2.18330
O257        O  0.13019785  0.52368192  0.41920262    -0.67010
O258        O  0.14768264  0.95111518  0.45525767    -0.51570
C259        C  0.15886182  0.98699792  0.42902889     0.71760
O260        O  0.01940403  0.64071867  0.57712808    -0.59920
O261        O  0.44356956  0.65511867  0.54533021    -0.51890
C262        C  0.48117201  0.66801447  0.56901847     0.73570
O263        O  0.13077076  0.52410276  0.58106237    -0.71310
O264        O  0.14761007  0.95100571  0.54572321    -0.49990
C265        C  0.15915635  0.98710590  0.57155559     0.74950
O266        O  0.01892607  0.64058754  0.42267860    -0.66640
O267        O  0.44370232  0.65535098  0.45515575    -0.53840
C268        C  0.48098396  0.66805275  0.43107161     0.73330
Zr269      Zr  0.05096997  0.55898913  0.43802300     2.77540
O270        O  0.11453288  0.62442688  0.43433368    -0.97390
O271        O  0.04076984  0.55243123  0.36140780    -0.78210
Zr272      Zr  0.05090900  0.55857655  0.56278934     2.70070
O273        O  0.11646180  0.62146276  0.56896146    -0.79460
O274        O  0.03953758  0.55103894  0.63920445    -0.98540
Zr275      Zr  0.42872512  0.58047850  0.50021687     2.21500
Zr276      Zr  0.07285643  0.93650010  0.50036071     2.11130
O277        O  0.08640543  0.52519028  0.50040731    -2.47230
O278        O  0.01690071  0.59382811  0.50038508    -0.79250
O279        O  0.03766601  0.97137293  0.43649893    -0.71450
O280        O  0.46354125  0.54531298  0.56414587    -2.32400
O281        O  0.46360301  0.54558583  0.43645447    -2.28610
O282        O  0.03763922  0.97100042  0.56421758    -0.73210
H283        H  0.47673704  0.88720371  0.50039964     0.78790
H284        H  0.44871062  0.56023760  0.58909849     0.79880
H285        H  0.12170562  0.53289959  0.50041049     0.82100
H286        H  0.44872599  0.56055675  0.41146516     0.79710
H287        H  0.43124868  0.99169611  0.64709090     0.42750
H288        H  0.05538801  0.51855823  0.64671171     0.41720
H289        H  0.12340715  0.63164734  0.53930115     0.41400
H290        H  0.14150103  0.61342918  0.45389304     0.39330
H291        H  0.05467289  0.51903410  0.35415089     0.42460
H292        H  0.43337494  0.99477747  0.35403558     0.37240
H293        H  0.37412025  0.88994225  0.46421281     0.43360
H294        H  0.39626573  0.86687250  0.54626310     0.39780
H295        H  0.12922869  0.62156863  0.40558613     0.44700
H296        H  0.43877734  0.93644111  0.35008158     0.43420
H297        H  0.38790692  0.87883051  0.59453132     0.43550
H298        H  0.06219114  0.57666129  0.65135675     0.43910
C299        C  0.49630057  0.75961825  0.34218813     0.03460
C300        C  0.48021944  0.71769716  0.36531712    -0.12690
C301        C  0.98316365  0.71703674  0.40979546     0.00960
C302        C  0.00315069  0.75884998  0.43111293    -0.11210
C303        C  0.01936985  0.80121037  0.40828270     0.03460
C304        C  0.51577489  0.80108860  0.36384046    -0.10630
H305        H  0.46665406  0.68484104  0.34863056     0.09050
H306        H  0.00557725  0.75861822  0.46525274     0.06580
H307        H  0.52618039  0.83443690  0.34615457     0.06430
C308        C  0.24998595  0.51314239  0.34188079     0.03460
C309        C  0.29175890  0.52910253  0.36527640    -0.12690
C310        C  0.29221130  0.52616729  0.40980567     0.00960
C311        C  0.25025406  0.50639474  0.43102320    -0.11210
C312        C  0.20800411  0.49029109  0.40809806     0.03460
C313        C  0.20843617  0.49378799  0.36362900    -0.10630
H314        H  0.32522265  0.54119878  0.34874297     0.09050
H315        H  0.25035067  0.50390164  0.46516747     0.06580
H316        H  0.17493456  0.48399602  0.34601083     0.06430
C317        C  0.25062650  0.51315607  0.65835041     0.03460
C318        C  0.29182434  0.53031715  0.63500568    -0.12690
C319        C  0.29233444  0.52687353  0.59052468     0.00960
C320        C  0.25048494  0.50663840  0.56938370    -0.11210
C321        C  0.20843591  0.49019341  0.59236996     0.03460
C322        C  0.20921735  0.49323266  0.63684292    -0.10630
H323        H  0.32482895  0.54356827  0.65163227     0.09050
H324        H  0.25048550  0.50410754  0.53524852     0.06580
H325        H  0.17612660  0.48276925  0.65469836     0.06430
C326        C  0.49578122  0.75910099  0.65815182     0.03460
C327        C  0.47922245  0.71761171  0.63467930    -0.12690
C328        C  0.48324938  0.71695473  0.59026956     0.00960
C329        C  0.50402369  0.75862109  0.56923484    -0.11210
C330        C  0.52015031  0.80077328  0.59226574     0.03460
C331        C  0.51631367  0.80031232  0.63666592    -0.10630
H332        H  0.46445884  0.68499620  0.65099434     0.09050
H333        H  0.00709064  0.75846643  0.53513870     0.06580
H334        H  0.52732678  0.83337151  0.65438883     0.06430
C335        C  0.24257655  0.52263342  0.15799759     0.03460
C336        C  0.25968529  0.98223894  0.13342639    -0.12690
C337        C  0.25493593  0.98271644  0.08913004     0.00960
C338        C  0.23335078  0.52480561  0.06909677    -0.11210
C339        C  0.21766321  0.56653337  0.09299895     0.03460
C340        C  0.22223598  0.56488638  0.13748633    -0.10630
H341        H  0.27470270  0.94905995  0.14890961     0.09050
H342        H  0.22951085  0.52539571  0.03505176     0.06580
H343        H  0.21126520  0.59735661  0.15602164     0.06430
O344        O  0.21731034  0.90767028  0.92459300    -0.74960
O345        O  0.29408854  0.92027674  0.95513528    -0.53870
C346        C  0.25605735  0.93424572  0.93229560     0.78770
O347        O  0.10526307  0.79071272  0.07958325    -0.59560
O348        O  0.08940896  0.71688650  0.04503697    -0.52590
C349        C  0.07742983  0.75333920  0.07029750     0.70780
O350        O  0.21745772  0.90760306  0.07502366    -0.74120
O351        O  0.29424421  0.92009576  0.04462696    -0.54680
C352        C  0.25629375  0.93402064  0.06745815     0.76790
O353        O  0.10485469  0.79094492  0.92037895    -0.59260
O354        O  0.08938640  0.71689548  0.95496993    -0.52380
C355        C  0.07716255  0.75342340  0.92973335     0.73380
Zr356      Zr  0.18520971  0.82522672  0.93751736     2.54710
O357        O  0.11989922  0.88894555  0.93281459    -0.79830
O358        O  0.19435376  0.81943875  0.86076231    -0.93240
Zr359      Zr  0.18513814  0.82554752  0.06190133     2.64680
O360        O  0.12195704  0.89169882  0.06558701    -0.98200
O361        O  0.19412759  0.81940412  0.13868487    -0.80260
O362        O  0.22005393  0.85966089  0.99964303    -0.83620
O363        O  0.15002632  0.79131127  0.99978726    -2.18330
O364        O  0.24897978  0.64462450  0.91775242    -0.67010
O365        O  0.17742123  0.62734852  0.95475209    -0.51570
C366        C  0.21251062  0.61609921  0.92789663     0.71760
O367        O  0.36660651  0.75434639  0.07864160    -0.59920
O368        O  0.38268801  0.82894833  0.04535483    -0.51890
C369        C  0.39458931  0.79176344  0.07013354     0.73570
O370        O  0.25039663  0.64469703  0.08260935    -0.71310
O371        O  0.17854086  0.62746465  0.04584313    -0.49990
C372        C  0.21394714  0.61615983  0.07255623     0.74950
O373        O  0.36631021  0.75511856  0.92086724    -0.66640
O374        O  0.38263427  0.82933775  0.95454276    -0.53840
C375        C  0.39438256  0.79244939  0.92955179     0.73330
Zr376      Zr  0.28550773  0.72299510  0.93761718     2.77540
O377        O  0.35009373  0.65816842  0.93508552    -0.97390
O378        O  0.27929096  0.73256616  0.86089474    -0.78210
Zr379      Zr  0.28529769  0.72343621  0.06256874     2.70070
O380        O  0.34754398  0.65672449  0.06719363    -0.79460
O381        O  0.27871830  0.73466235  0.13905354    -0.98540
Zr382      Zr  0.30821493  0.84502526  0.99985896     2.21500
Zr383      Zr  0.16385944  0.70235531  0.00009668     2.11130
O384        O  0.25209254  0.68780203  0.00015040    -2.47230
O385        O  0.32089231  0.75654910  0.00007130    -0.79250
O386        O  0.19822464  0.73737629  0.93613353    -0.71450
O387        O  0.27251070  0.81109509  0.06372845    -2.32400
O388        O  0.27257577  0.81070584  0.93607725    -2.28610
O389        O  0.19806919  0.73767533  0.06391672    -0.73210
H390        H  0.11472051  0.79915300  0.99976872     0.78790
H391        H  0.28742772  0.82588669  0.08870284     0.79880
H392        H  0.25952982  0.65231605  0.00026055     0.82100
H393        H  0.28751137  0.82547295  0.91109801     0.79710
H394        H  0.21814081  0.84618663  0.14631881     0.42750
H395        H  0.24547279  0.72083901  0.14649771     0.41720
H396        H  0.35854900  0.65154807  0.03750885     0.41400
H397        H  0.33809876  0.63109029  0.95406685     0.39330
H398        H  0.24546201  0.72003084  0.85365643     0.42460
H399        H  0.22194276  0.84277097  0.85372596     0.37240
H400        H  0.11630606  0.90150092  0.96223312     0.43360
H401        H  0.09514771  0.88130571  0.04572565     0.39780
H402        H  0.34792112  0.64388112  0.90613720     0.44700
H403        H  0.16395192  0.83604536  0.84933544     0.43420
H404        H  0.10692350  0.88858620  0.09419052     0.43550
H405        H  0.30294757  0.71025846  0.15107901     0.43910
C406        C  0.48545110  0.76800222  0.15873543     0.03460
C407        C  0.02796566  0.75341596  0.13571122    -0.12690
C408        C  0.02853645  0.75537170  0.09129397     0.00960
C409        C  0.48625906  0.77359976  0.06944309    -0.11210
C410        C  0.44330271  0.78866491  0.09184188     0.03460
C411        C  0.44310948  0.78508245  0.13640992    -0.10630
H412        H  0.06188943  0.74269574  0.15242808     0.09050
H413        H  0.48668307  0.77571961  0.03526245     0.06580
H414        H  0.40879766  0.79311764  0.15347665     0.06430
C415        C  0.24212652  0.52408661  0.84213925     0.03460
C416        C  0.26001970  0.98377787  0.86677838    -0.12690
C417        C  0.25445865  0.98332072  0.91098725     0.00960
C418        C  0.23221587  0.52482547  0.93115200    -0.11210
C419        C  0.21585580  0.56652276  0.90741407     0.03460
C420        C  0.21980608  0.56516184  0.86290674    -0.10630
H421        H  0.27631883  0.95119952  0.85148177     0.09050
H422        H  0.22830397  0.52496408  0.96518401     0.06580
H423        H  0.20674682  0.59719422  0.84476552     0.06430
C424        C  0.48500300  0.76810095  0.84144608     0.03460
C425        C  0.02722755  0.75260692  0.86447134    -0.12690
C426        C  0.02811911  0.75529295  0.90884382     0.00960
C427        C  0.48604262  0.77407515  0.93054893    -0.11210
C428        C  0.44315567  0.78949719  0.90802052     0.03460
C429        C  0.44307581  0.78631046  0.86345948    -0.10630
H430        H  0.06069279  0.74082980  0.84768546     0.09050
H431        H  0.48656457  0.77635430  0.96471552     0.06580
H432        H  0.40917147  0.79544677  0.84606228     0.06430
C433        C  0.47169687  0.80309796  0.72515025    -0.20970
C434        C  0.49102006  0.76016080  0.70503267    -0.09010
C435        C  0.00695185  0.71933908  0.73006690     0.29840
C436        C  0.00390722  0.72184678  0.77429158    -0.20970
C437        C  0.48519500  0.76504984  0.79443636    -0.09030
C438        C  0.46887246  0.80569561  0.76937750     0.29850
F439        F  0.45209185  0.84871150  0.78758925    -0.19550
H440        H  0.45904149  0.83493560  0.70652803     0.18220
H441        H  0.01665464  0.69005192  0.79291797     0.18220
F442        F  0.02729157  0.67782231  0.71195076    -0.19540
C443        C  0.25944698  0.56163547  0.72596646    -0.20970
C444        C  0.25046271  0.51590748  0.70528220    -0.09010
C445        C  0.24012407  0.97301235  0.72963092     0.29840
C446        C  0.23721347  0.97620501  0.77378083    -0.20970
C447        C  0.24550434  0.52202731  0.79486289    -0.09030
C448        C  0.25714484  0.56484262  0.77030861     0.29850
F449        F  0.26742890  0.60955732  0.78893446    -0.19550
H450        H  0.26776335  0.59505646  0.70766914     0.18220
H451        H  0.22776690  0.94263026  0.79141896     0.18220
F452        F  0.23351593  0.92776013  0.71068849    -0.19540
C453        C  0.26385123  0.56092020  0.22849589    -0.20970
C454        C  0.24527062  0.52014435  0.20505629    -0.09010
C455        C  0.22878366  0.97714697  0.22693735     0.29840
C456        C  0.23111200  0.97507784  0.27118412    -0.20970
C457        C  0.24955042  0.51580020  0.29472992    -0.09030
C458        C  0.26604260  0.55889689  0.27289387     0.29850
F459        F  0.28276639  0.59966780  0.29441551    -0.19550
H460        H  0.27679571  0.59440210  0.21237241     0.18220
H461        H  0.21831123  0.94143229  0.28714359     0.18220
F462        F  0.20889684  0.93762209  0.20567709    -0.19540
C463        C  0.00989943  0.72453341  0.22636944    -0.20970
C464        C  0.48582832  0.76503734  0.20594189    -0.09010
C465        C  0.46429282  0.80317330  0.23103702     0.29840
C466        C  0.46744053  0.80083234  0.27529304    -0.20970
C467        C  0.49204751  0.76068628  0.29540594    -0.09030
C468        C  0.01328659  0.72245556  0.27059053     0.29850
F469        F  0.03885558  0.68404209  0.28903844    -0.19550
H470        H  0.02648063  0.69442295  0.20804707     0.18220
H471        H  0.45089019  0.83067423  0.29398467     0.18220
F472        F  0.44191215  0.84374972  0.21298825    -0.19540
O473        O  0.86829361  0.48976307  0.42323729    -0.74960
O474        O  0.85404381  0.06565508  0.45501307    -0.53870
C475        C  0.84108774  0.02807959  0.43126347     0.78770
O476        O  0.98623268  0.37842299  0.58095471    -0.59560
O477        O  0.55904198  0.36149762  0.54545127    -0.52590
C478        C  0.52317276  0.35003284  0.57141103     0.70780
O479        O  0.86840006  0.49027545  0.57742279    -0.74120
O480        O  0.85411556  0.06609680  0.54527193    -0.54680
C481        C  0.84120760  0.02863216  0.56919996     0.76790
O482        O  0.98508845  0.37845294  0.42000317    -0.59260
O483        O  0.55853829  0.36187279  0.45493817    -0.52380
C484        C  0.52231562  0.35027643  0.42928053     0.73380
Zr485      Zr  0.95017844  0.45802950  0.43811416     2.54710
O486        O  0.88735063  0.39208866  0.43491183    -0.79830
O487        O  0.95601359  0.46652327  0.36128069    -0.93240
Zr488      Zr  0.95007535  0.45774251  0.56263497     2.64680
O489        O  0.88505201  0.39372457  0.56579829    -0.98200
O490        O  0.95648410  0.46595854  0.63944728    -0.80260
O491        O  0.91513619  0.49215966  0.50029467    -0.83620
O492        O  0.98425034  0.42262312  0.50041204    -2.18330
O493        O  0.63019782  0.02368188  0.41920258    -0.67010
O494        O  0.64768266  0.45111518  0.45525766    -0.51570
C495        C  0.65886185  0.48699793  0.42902890     0.71760
O496        O  0.51940404  0.14071868  0.57712806    -0.59920
O497        O  0.94356955  0.15511867  0.54533022    -0.51890
C498        C  0.98117200  0.16801448  0.56901847     0.73570
O499        O  0.63077074  0.02410274  0.58106238    -0.71310
O500        O  0.64761008  0.45100571  0.54572321    -0.49990
C501        C  0.65915636  0.48710591  0.57155558     0.74950
O502        O  0.51892608  0.14058754  0.42267861    -0.66640
O503        O  0.94370231  0.15535098  0.45515576    -0.53840
C504        C  0.98098396  0.16805275  0.43107162     0.73330
Zr505      Zr  0.55096996  0.05898911  0.43802299     2.77540
O506        O  0.61453290  0.12442684  0.43433371    -0.97390
O507        O  0.54076982  0.05243127  0.36140780    -0.78210
Zr508      Zr  0.55090899  0.05857654  0.56278933     2.70070
O509        O  0.61646182  0.12146273  0.56896141    -0.79460
O510        O  0.53953758  0.05103899  0.63920444    -0.98540
Zr511      Zr  0.92872511  0.08047850  0.50021688     2.21500
Zr512      Zr  0.57285644  0.43650010  0.50036070     2.11130
O513        O  0.58640542  0.02519027  0.50040730    -2.47230
O514        O  0.51690070  0.09382811  0.50038507    -0.79250
O515        O  0.53766603  0.47137293  0.43649892    -0.71450
O516        O  0.96354124  0.04531298  0.56414588    -2.32400
O517        O  0.96360300  0.04558583  0.43645448    -2.28610
O518        O  0.53763924  0.47100042  0.56421757    -0.73210
H519        H  0.97673705  0.38720372  0.50039964     0.78790
H520        H  0.94871061  0.06023760  0.58909850     0.79880
H521        H  0.62170561  0.03289957  0.50041048     0.82100
H522        H  0.94872597  0.06055675  0.41146516     0.79710
H523        H  0.93124873  0.49169612  0.64709091     0.42750
H524        H  0.55538795  0.01855825  0.64671171     0.41720
H525        H  0.62340716  0.13164730  0.53930109     0.41400
H526        H  0.64150106  0.11342910  0.45389305     0.39330
H527        H  0.55467279  0.01903411  0.35415087     0.42460
H528        H  0.93337500  0.49477749  0.35403557     0.37240
H529        H  0.87412023  0.38994230  0.46421282     0.43360
H530        H  0.89626573  0.36687251  0.54626309     0.39780
H531        H  0.62922870  0.12156861  0.40558614     0.44700
H532        H  0.93877734  0.43644113  0.35008158     0.43420
H533        H  0.88790693  0.37883052  0.59453132     0.43550
H534        H  0.56219120  0.07666130  0.65135673     0.43910
C535        C  0.99630056  0.25961825  0.34218814     0.03460
C536        C  0.98021943  0.21769716  0.36531713    -0.12690
C537        C  0.48316366  0.21703673  0.40979546     0.00960
C538        C  0.50315070  0.25884997  0.43111293    -0.11210
C539        C  0.51936986  0.30121037  0.40828269     0.03460
C540        C  0.01577488  0.30108859  0.36384046    -0.10630
H541        H  0.96665405  0.18484104  0.34863058     0.09050
H542        H  0.50557726  0.25861822  0.46525274     0.06580
H543        H  0.02618038  0.33443690  0.34615457     0.06430
C544        C  0.74998597  0.01314238  0.34188079     0.03460
C545        C  0.79175891  0.02910253  0.36527641    -0.12690
C546        C  0.79221129  0.02616728  0.40980569     0.00960
C547        C  0.75025404  0.00639472  0.43102320    -0.11210
C548        C  0.70800410  0.99029107  0.40809804     0.03460
C549        C  0.70843618  0.99378798  0.36362898    -0.10630
H550        H  0.82522266  0.04119878  0.34874300     0.09050
H551        H  0.75035063  0.00390162  0.46516747     0.06580
H552        H  0.67493458  0.98399601  0.34601081     0.06430
C553        C  0.75062649  0.01315609  0.65835041     0.03460
C554        C  0.79182432  0.03031716  0.63500567    -0.12690
C555        C  0.79233442  0.02687353  0.59052467     0.00960
C556        C  0.75048492  0.00663839  0.56938370    -0.11210
C557        C  0.70843589  0.99019340  0.59236996     0.03460
C558        C  0.70921734  0.99323267  0.63684293    -0.10630
H559        H  0.82482893  0.04356830  0.65163226     0.09050
H560        H  0.75048548  0.00410750  0.53524852     0.06580
H561        H  0.67612658  0.98276926  0.65469837     0.06430
C562        C  0.99578122  0.25910100  0.65815182     0.03460
C563        C  0.97922245  0.21761172  0.63467930    -0.12690
C564        C  0.98324938  0.21695473  0.59026956     0.00960
C565        C  0.00402370  0.25862110  0.56923484    -0.11210
C566        C  0.02015032  0.30077328  0.59226573     0.03460
C567        C  0.01631368  0.30031233  0.63666592    -0.10630
H568        H  0.96445883  0.18499622  0.65099433     0.09050
H569        H  0.50709066  0.25846642  0.53513869     0.06580
H570        H  0.02732679  0.33337152  0.65438882     0.06430
C571        C  0.74257660  0.02263342  0.15799759     0.03460
C572        C  0.75968527  0.48223893  0.13342639    -0.12690
C573        C  0.75493592  0.48271642  0.08913004     0.00960
C574        C  0.73335075  0.02480562  0.06909678    -0.11210
C575        C  0.71766319  0.06653338  0.09299897     0.03460
C576        C  0.72223600  0.06488638  0.13748635    -0.10630
H577        H  0.77470267  0.44905994  0.14890961     0.09050
H578        H  0.72951078  0.02539573  0.03505177     0.06580
H579        H  0.71126523  0.09735660  0.15602167     0.06430
O580        O  0.71731035  0.40767027  0.92459299    -0.74960
O581        O  0.79408854  0.42027673  0.95513529    -0.53870
C582        C  0.75605735  0.43424571  0.93229560     0.78770
O583        O  0.60526306  0.29071270  0.07958325    -0.59560
O584        O  0.58940896  0.21688647  0.04503697    -0.52590
C585        C  0.57742983  0.25333917  0.07029750     0.70780
O586        O  0.71745771  0.40760305  0.07502366    -0.74120
O587        O  0.79424420  0.42009574  0.04462697    -0.54680
C588        C  0.75629374  0.43402063  0.06745815     0.76790
O589        O  0.60485469  0.29094492  0.92037893    -0.59260
O590        O  0.58938639  0.21689548  0.95496992    -0.52380
C591        C  0.57716255  0.25342340  0.92973334     0.73380
Zr592      Zr  0.68520971  0.32522671  0.93751735     2.54710
O593        O  0.61989923  0.38894554  0.93281458    -0.79830
O594        O  0.69435377  0.31943874  0.86076231    -0.93240
Zr595      Zr  0.68513813  0.32554751  0.06190133     2.64680
O596        O  0.62195702  0.39169881  0.06558699    -0.98200
O597        O  0.69412756  0.31940411  0.13868486    -0.80260
O598        O  0.72005393  0.35966087  0.99964303    -0.83620
O599        O  0.65002631  0.29131126  0.99978726    -2.18330
O600        O  0.74897979  0.14462448  0.91775243    -0.67010
O601        O  0.67742121  0.12734852  0.95475208    -0.51570
C602        C  0.71251062  0.11609920  0.92789663     0.71760
O603        O  0.86660650  0.25434634  0.07864160    -0.59920
O604        O  0.88268800  0.32894830  0.04535484    -0.51890
C605        C  0.89458931  0.29176340  0.07013355     0.73570
O606        O  0.75039657  0.14469706  0.08260941    -0.71310
O607        O  0.67854086  0.12746463  0.04584312    -0.49990
C608        C  0.71394711  0.11615984  0.07255625     0.74950
O609        O  0.86631020  0.25511856  0.92086724    -0.66640
O610        O  0.88263427  0.32933775  0.95454277    -0.53840
C611        C  0.89438255  0.29244939  0.92955179     0.73330
Zr612      Zr  0.78550773  0.22299509  0.93761718     2.77540
O613        O  0.85009374  0.15816842  0.93508552    -0.97390
O614        O  0.77929095  0.23256613  0.86089474    -0.78210
Zr615      Zr  0.78529768  0.22343620  0.06256873     2.70070
O616        O  0.84754391  0.15672441  0.06719353    -0.79460
O617        O  0.77871840  0.23466233  0.13905354    -0.98540
Zr618      Zr  0.80821492  0.34502524  0.99985897     2.21500
Zr619      Zr  0.66385943  0.20235531  0.00009667     2.11130
O620        O  0.75209253  0.18780202  0.00015040    -2.47230
O621        O  0.82089230  0.25654909  0.00007130    -0.79250
O622        O  0.69822464  0.23737628  0.93613353    -0.71450
O623        O  0.77251069  0.31109508  0.06372845    -2.32400
O624        O  0.77257577  0.31070583  0.93607725    -2.28610
O625        O  0.69806918  0.23767532  0.06391671    -0.73210
H626        H  0.61472051  0.29915299  0.99976871     0.78790
H627        H  0.78742770  0.32588668  0.08870285     0.79880
H628        H  0.75952981  0.15231604  0.00026056     0.82100
H629        H  0.78751137  0.32547294  0.91109801     0.79710
H630        H  0.71814079  0.34618662  0.14631881     0.42750
H631        H  0.74547286  0.22083910  0.14649774     0.41720
H632        H  0.85854903  0.15154813  0.03750877     0.41400
H633        H  0.83809877  0.13109028  0.95406685     0.39330
H634        H  0.74546200  0.22003080  0.85365644     0.42460
H635        H  0.72194279  0.34277094  0.85372596     0.37240
H636        H  0.61630606  0.40150092  0.96223311     0.43360
H637        H  0.59514769  0.38130569  0.04572563     0.39780
H638        H  0.84792113  0.14388112  0.90613719     0.44700
H639        H  0.66395195  0.33604537  0.84933543     0.43420
H640        H  0.60692347  0.38858618  0.09419050     0.43550
H641        H  0.80294761  0.21025836  0.15107900     0.43910
C642        C  0.98545109  0.26800219  0.15873543     0.03460
C643        C  0.52796566  0.25341592  0.13571122    -0.12690
C644        C  0.52853645  0.25537167  0.09129396     0.00960
C645        C  0.98625905  0.27359972  0.06944309    -0.11210
C646        C  0.94330270  0.28866486  0.09184188     0.03460
C647        C  0.94310947  0.28508241  0.13640992    -0.10630
H648        H  0.56188943  0.24269570  0.15242808     0.09050
H649        H  0.98668307  0.27571956  0.03526245     0.06580
H650        H  0.90879765  0.29311760  0.15347665     0.06430
C651        C  0.74212653  0.02408662  0.84213924     0.03460
C652        C  0.76001968  0.48377786  0.86677839    -0.12690
C653        C  0.75445866  0.48332071  0.91098725     0.00960
C654        C  0.73221587  0.02482547  0.93115199    -0.11210
C655        C  0.71585579  0.06652276  0.90741406     0.03460
C656        C  0.71980608  0.06516184  0.86290674    -0.10630
H657        H  0.77631880  0.45119950  0.85148177     0.09050
H658        H  0.72830398  0.02496407  0.96518400     0.06580
H659        H  0.70674681  0.09719422  0.84476552     0.06430
C660        C  0.98500299  0.26810096  0.84144608     0.03460
C661        C  0.52722754  0.25260693  0.86447132    -0.12690
C662        C  0.52811910  0.25529296  0.90884381     0.00960
C663        C  0.98604261  0.27407516  0.93054893    -0.11210
C664        C  0.94315566  0.28949719  0.90802052     0.03460
C665        C  0.94307580  0.28631047  0.86345948    -0.10630
H666        H  0.56069279  0.24082981  0.84768545     0.09050
H667        H  0.98656456  0.27635430  0.96471552     0.06580
H668        H  0.90917147  0.29544678  0.84606228     0.06430
C669        C  0.97169688  0.30309797  0.72515025    -0.20970
C670        C  0.99102006  0.26016081  0.70503267    -0.09010
C671        C  0.50695183  0.21933908  0.73006689     0.29840
C672        C  0.50390721  0.22184678  0.77429156    -0.20970
C673        C  0.98519499  0.26504985  0.79443636    -0.09030
C674        C  0.96887246  0.30569562  0.76937750     0.29850
F675        F  0.95209186  0.34871152  0.78758924    -0.19550
H676        H  0.95904150  0.33493562  0.70652802     0.18220
H677        H  0.51665464  0.19005193  0.79291796     0.18220
F678        F  0.52729156  0.17782232  0.71195075    -0.19540
C679        C  0.75944696  0.06163549  0.72596646    -0.20970
C680        C  0.75046270  0.01590750  0.70528219    -0.09010
C681        C  0.74012404  0.47301234  0.72963093     0.29840
C682        C  0.73721343  0.47620500  0.77378083    -0.20970
C683        C  0.74550434  0.02202732  0.79486288    -0.09030
C684        C  0.75714482  0.06484264  0.77030861     0.29850
F685        F  0.76742888  0.10955734  0.78893445    -0.19550
H686        H  0.76776333  0.09505648  0.70766914     0.18220
H687        H  0.72776685  0.44263025  0.79141897     0.18220
F688        F  0.73351588  0.42776012  0.71068849    -0.19540
C689        C  0.76385131  0.06092018  0.22849589    -0.20970
C690        C  0.74527069  0.02014434  0.20505629    -0.09010
C691        C  0.72878365  0.47714697  0.22693735     0.29840
C692        C  0.73111200  0.47507784  0.27118412    -0.20970
C693        C  0.74955047  0.01580019  0.29472992    -0.09030
C694        C  0.76604266  0.05889687  0.27289388     0.29850
F695        F  0.78276645  0.09966778  0.29441552    -0.19550
H696        H  0.77679578  0.09440209  0.21237241     0.18220
H697        H  0.71831125  0.44143228  0.28714360     0.18220
F698        F  0.70889684  0.43762208  0.20567710    -0.19540
C699        C  0.50989942  0.22453338  0.22636945    -0.20970
C700        C  0.98582831  0.26503731  0.20594189    -0.09010
C701        C  0.96429282  0.30317328  0.23103702     0.29840
C702        C  0.96744053  0.30083233  0.27529304    -0.20970
C703        C  0.99204751  0.26068627  0.29540595    -0.09030
C704        C  0.51328659  0.22245554  0.27059053     0.29850
F705        F  0.53885558  0.18404207  0.28903844    -0.19550
H706        H  0.52648062  0.19442291  0.20804707     0.18220
H707        H  0.95089019  0.33067423  0.29398466     0.18220
F708        F  0.94191215  0.34374969  0.21298825    -0.19540
O709        O  0.86829359  0.98976306  0.42323731    -0.74960
O710        O  0.85404381  0.56565507  0.45501307    -0.53870
C711        C  0.84108776  0.52807958  0.43126347     0.78770
O712        O  0.98623266  0.87842299  0.58095472    -0.59560
O713        O  0.55904198  0.86149763  0.54545128    -0.52590
C714        C  0.52317277  0.85003284  0.57141104     0.70780
O715        O  0.86840004  0.99027546  0.57742278    -0.74120
O716        O  0.85411556  0.56609679  0.54527193    -0.54680
C717        C  0.84120760  0.52863215  0.56919996     0.76790
O718        O  0.98508842  0.87845294  0.42000317    -0.59260
O719        O  0.55853830  0.86187280  0.45493817    -0.52380
C720        C  0.52231563  0.85027643  0.42928053     0.73380
Zr721      Zr  0.95017842  0.95802950  0.43811416     2.54710
O722        O  0.88735061  0.89208865  0.43491184    -0.79830
O723        O  0.95601355  0.96652326  0.36128070    -0.93240
Zr724      Zr  0.95007534  0.95774252  0.56263498     2.64680
O725        O  0.88505199  0.89372458  0.56579830    -0.98200
O726        O  0.95648408  0.96595856  0.63944729    -0.80260
O727        O  0.91513618  0.99215966  0.50029467    -0.83620
O728        O  0.98425032  0.92262311  0.50041205    -2.18330
O729        O  0.63019785  0.52368187  0.41920259    -0.67010
O730        O  0.64768265  0.95111520  0.45525767    -0.51570
C731        C  0.65886183  0.98699795  0.42902889     0.71760
O732        O  0.51940406  0.64071867  0.57712807    -0.59920
O733        O  0.94356953  0.65511867  0.54533022    -0.51890
C734        C  0.98117198  0.66801447  0.56901848     0.73570
O735        O  0.63077076  0.52410273  0.58106238    -0.71310
O736        O  0.64761008  0.95100573  0.54572321    -0.49990
C737        C  0.65915635  0.98710593  0.57155559     0.74950
O738        O  0.51892610  0.64058753  0.42267859    -0.66640
O739        O  0.94370229  0.65535097  0.45515576    -0.53840
C740        C  0.98098393  0.66805275  0.43107161     0.73330
Zr741      Zr  0.55096998  0.55898911  0.43802298     2.77540
O742        O  0.61453292  0.62442684  0.43433368    -0.97390
O743        O  0.54076984  0.55243123  0.36140779    -0.78210
Zr744      Zr  0.55090902  0.55857654  0.56278932     2.70070
O745        O  0.61646185  0.62146273  0.56896137    -0.79460
O746        O  0.53953762  0.55103900  0.63920444    -0.98540
Zr747      Zr  0.92872510  0.58047850  0.50021688     2.21500
Zr748      Zr  0.57285644  0.93650011  0.50036071     2.11130
O749        O  0.58640544  0.52519026  0.50040730    -2.47230
O750        O  0.51690073  0.59382810  0.50038506    -0.79250
O751        O  0.53766602  0.97137293  0.43649893    -0.71450
O752        O  0.96354123  0.54531298  0.56414588    -2.32400
O753        O  0.96360301  0.54558583  0.43645448    -2.28610
O754        O  0.53763922  0.97100042  0.56421758    -0.73210
H755        H  0.97673702  0.88720372  0.50039965     0.78790
H756        H  0.94871060  0.56023759  0.58909850     0.79880
H757        H  0.62170563  0.53289956  0.50041047     0.82100
H758        H  0.94872598  0.56055675  0.41146517     0.79710
H759        H  0.93124871  0.99169613  0.64709091     0.42750
H760        H  0.55538799  0.51855825  0.64671170     0.41720
H761        H  0.62340713  0.63164734  0.53930105     0.41400
H762        H  0.64150107  0.61342912  0.45389303     0.39330
H763        H  0.55467286  0.51903409  0.35415087     0.42460
H764        H  0.93337496  0.99477749  0.35403558     0.37240
H765        H  0.87412022  0.88994229  0.46421283     0.43360
H766        H  0.89626572  0.86687251  0.54626310     0.39780
H767        H  0.62922871  0.62156860  0.40558611     0.44700
H768        H  0.93877730  0.93644112  0.35008159     0.43420
H769        H  0.88790691  0.87883053  0.59453133     0.43550
H770        H  0.56219126  0.57666130  0.65135672     0.43910
C771        C  0.99630052  0.75961825  0.34218813     0.03460
C772        C  0.98021939  0.71769716  0.36531713    -0.12690
C773        C  0.48316369  0.71703673  0.40979545     0.00960
C774        C  0.50315073  0.75884997  0.43111293    -0.11210
C775        C  0.51936989  0.80121037  0.40828270     0.03460
C776        C  0.01577485  0.80108859  0.36384046    -0.10630
H777        H  0.96665401  0.68484104  0.34863057     0.09050
H778        H  0.50557728  0.75861822  0.46525274     0.06580
H779        H  0.02618034  0.83443690  0.34615457     0.06430
C780        C  0.74998597  0.51314236  0.34188079     0.03460
C781        C  0.79175891  0.52910251  0.36527641    -0.12690
C782        C  0.79221130  0.52616727  0.40980568     0.00960
C783        C  0.75025405  0.50639470  0.43102320    -0.11210
C784        C  0.70800411  0.49029105  0.40809804     0.03460
C785        C  0.70843619  0.49378794  0.36362898    -0.10630
H786        H  0.82522266  0.54119877  0.34874299     0.09050
H787        H  0.75035065  0.50390161  0.46516747     0.06580
H788        H  0.67493459  0.48399596  0.34601081     0.06430
C789        C  0.75062650  0.51315605  0.65835041     0.03460
C790        C  0.79182433  0.53031713  0.63500567    -0.12690
C791        C  0.79233443  0.52687350  0.59052467     0.00960
C792        C  0.75048493  0.50663837  0.56938370    -0.11210
C793        C  0.70843590  0.49019337  0.59236996     0.03460
C794        C  0.70921735  0.49323263  0.63684293    -0.10630
H795        H  0.82482894  0.54356826  0.65163226     0.09050
H796        H  0.75048549  0.50410750  0.53524852     0.06580
H797        H  0.67612659  0.48276923  0.65469836     0.06430
C798        C  0.99578119  0.75910099  0.65815183     0.03460
C799        C  0.97922242  0.71761171  0.63467931    -0.12690
C800        C  0.98324934  0.71695473  0.59026957     0.00960
C801        C  0.00402366  0.75862109  0.56923485    -0.11210
C802        C  0.02015028  0.80077328  0.59226574     0.03460
C803        C  0.01631365  0.80031232  0.63666593    -0.10630
H804        H  0.96445881  0.68499621  0.65099435     0.09050
H805        H  0.50709067  0.75846643  0.53513869     0.06580
H806        H  0.02732677  0.83337151  0.65438883     0.06430
C807        C  0.74257658  0.52263342  0.15799760     0.03460
C808        C  0.75968529  0.98223893  0.13342640    -0.12690
C809        C  0.75493594  0.98271642  0.08913005     0.00960
C810        C  0.73335071  0.52480563  0.06909678    -0.11210
C811        C  0.71766315  0.56653338  0.09299898     0.03460
C812        C  0.72223597  0.56488638  0.13748635    -0.10630
H813        H  0.77470267  0.94905993  0.14890962     0.09050
H814        H  0.72951074  0.52539574  0.03505177     0.06580
H815        H  0.71126519  0.59735659  0.15602168     0.06430
O816        O  0.71731037  0.90767026  0.92459298    -0.74960
O817        O  0.79408856  0.92027672  0.95513529    -0.53870
C818        C  0.75605737  0.93424570  0.93229559     0.78770
O819        O  0.60526306  0.79071273  0.07958323    -0.59560
O820        O  0.58940894  0.71688650  0.04503697    -0.52590
C821        C  0.57742982  0.75333921  0.07029749     0.70780
O822        O  0.71745773  0.90760304  0.07502368    -0.74120
O823        O  0.79424422  0.92009573  0.04462697    -0.54680
C824        C  0.75629376  0.93402062  0.06745816     0.76790
O825        O  0.60485469  0.79094493  0.92037894    -0.59260
O826        O  0.58938638  0.71689549  0.95496992    -0.52380
C827        C  0.57716254  0.75342341  0.92973335     0.73380
Zr828      Zr  0.68520971  0.82522671  0.93751735     2.54710
O829        O  0.61989925  0.88894555  0.93281458    -0.79830
O830        O  0.69435376  0.81943873  0.86076230    -0.93240
Zr831      Zr  0.68513814  0.82554751  0.06190132     2.64680
O832        O  0.62195705  0.89169882  0.06558698    -0.98200
O833        O  0.69412756  0.81940409  0.13868486    -0.80260
O834        O  0.72005393  0.85966087  0.99964303    -0.83620
O835        O  0.65002632  0.79131127  0.99978726    -2.18330
O836        O  0.74897975  0.64462450  0.91775239    -0.67010
O837        O  0.67742120  0.62734852  0.95475208    -0.51570
C838        C  0.71251059  0.61609921  0.92789661     0.71760
O839        O  0.86660651  0.75434632  0.07864158    -0.59920
O840        O  0.88268800  0.82894828  0.04535484    -0.51890
C841        C  0.89458931  0.79176338  0.07013353     0.73570
O842        O  0.75039654  0.64469707  0.08260943    -0.71310
O843        O  0.67854083  0.62746464  0.04584313    -0.49990
C844        C  0.71394708  0.61615984  0.07255626     0.74950
O845        O  0.86631021  0.75511852  0.92086726    -0.66640
O846        O  0.88263427  0.82933772  0.95454277    -0.53840
C847        C  0.89438256  0.79244935  0.92955181     0.73330
Zr848      Zr  0.78550773  0.72299508  0.93761718     2.77540
O849        O  0.85009369  0.65816836  0.93508556    -0.97390
O850        O  0.77929102  0.73256613  0.86089474    -0.78210
Zr851      Zr  0.78529768  0.72343618  0.06256873     2.70070
O852        O  0.84754388  0.65672436  0.06719347    -0.79460
O853        O  0.77871846  0.73466230  0.13905354    -0.98540
Zr854      Zr  0.80821493  0.84502523  0.99985896     2.21500
Zr855      Zr  0.66385942  0.70235531  0.00009667     2.11130
O856        O  0.75209251  0.68780201  0.00015040    -2.47230
O857        O  0.82089230  0.75654908  0.00007130    -0.79250
O858        O  0.69822463  0.73737628  0.93613353    -0.71450
O859        O  0.77251069  0.81109507  0.06372844    -2.32400
O860        O  0.77257577  0.81070582  0.93607725    -2.28610
O861        O  0.69806918  0.73767532  0.06391671    -0.73210
H862        H  0.61472051  0.79915301  0.99976871     0.78790
H863        H  0.78742771  0.82588666  0.08870284     0.79880
H864        H  0.75952979  0.65231603  0.00026055     0.82100
H865        H  0.78751138  0.82547292  0.91109801     0.79710
H866        H  0.71814080  0.84618658  0.14631881     0.42750
H867        H  0.74547290  0.72083913  0.14649775     0.41720
H868        H  0.85854903  0.65154815  0.03750871     0.41400
H869        H  0.83809868  0.63109022  0.95406687     0.39330
H870        H  0.74546204  0.72003087  0.85365642     0.42460
H871        H  0.72194279  0.84277091  0.85372596     0.37240
H872        H  0.61630609  0.90150094  0.96223311     0.43360
H873        H  0.59514772  0.88130572  0.04572562     0.39780
H874        H  0.84792111  0.64388108  0.90613723     0.44700
H875        H  0.66395194  0.83604537  0.84933543     0.43420
H876        H  0.60692349  0.88858620  0.09419050     0.43550
H877        H  0.80294764  0.71025827  0.15107898     0.43910
C878        C  0.98545109  0.76800220  0.15873543     0.03460
C879        C  0.52796566  0.75341596  0.13571121    -0.12690
C880        C  0.52853644  0.75537172  0.09129396     0.00960
C881        C  0.98625907  0.77359972  0.06944309    -0.11210
C882        C  0.94330271  0.78866485  0.09184187     0.03460
C883        C  0.94310947  0.78508240  0.13640991    -0.10630
H884        H  0.56188942  0.74269572  0.15242806     0.09050
H885        H  0.98668308  0.77571956  0.03526245     0.06580
H886        H  0.90879764  0.79311757  0.15347664     0.06430
C887        C  0.74212653  0.52408661  0.84213924     0.03460
C888        C  0.76001969  0.98377787  0.86677838    -0.12690
C889        C  0.75445868  0.98332071  0.91098725     0.00960
C890        C  0.73221584  0.52482548  0.93115199    -0.11210
C891        C  0.71585577  0.56652277  0.90741405     0.03460
C892        C  0.71980608  0.56516185  0.86290673    -0.10630
H893        H  0.77631882  0.95119952  0.85148176     0.09050
H894        H  0.72830393  0.52496408  0.96518400     0.06580
H895        H  0.70674684  0.59719422  0.84476550     0.06430
C896        C  0.98500300  0.76810093  0.84144610     0.03460
C897        C  0.52722754  0.75260693  0.86447133    -0.12690
C898        C  0.52811910  0.75529297  0.90884381     0.00960
C899        C  0.98604263  0.77407512  0.93054894    -0.11210
C900        C  0.94315567  0.78949715  0.90802053     0.03460
C901        C  0.94307581  0.78631043  0.86345949    -0.10630
H902        H  0.56069279  0.74082981  0.84768545     0.09050
H903        H  0.98656457  0.77635426  0.96471553     0.06580
H904        H  0.90917147  0.79544674  0.84606230     0.06430
C905        C  0.97169687  0.80309796  0.72515027    -0.20970
C906        C  0.99102004  0.76016080  0.70503268    -0.09010
C907        C  0.50695187  0.71933909  0.73006689     0.29840
C908        C  0.50390723  0.72184679  0.77429157    -0.20970
C909        C  0.98519500  0.76504983  0.79443637    -0.09030
C910        C  0.96887247  0.80569560  0.76937752     0.29850
F911        F  0.95209187  0.84871150  0.78758927    -0.19550
H912        H  0.95904149  0.83493561  0.70652805     0.18220
H913        H  0.51665466  0.69005194  0.79291797     0.18220
F914        F  0.52729161  0.67782233  0.71195076    -0.19540
C915        C  0.75944704  0.56163544  0.72596646    -0.20970
C916        C  0.75046271  0.51590746  0.70528220    -0.09010
C917        C  0.74012410  0.97301236  0.72963092     0.29840
C918        C  0.73721348  0.97620501  0.77378083    -0.20970
C919        C  0.74550435  0.52202730  0.79486289    -0.09030
C920        C  0.75714491  0.56484260  0.77030861     0.29850
F921        F  0.76742903  0.60955728  0.78893446    -0.19550
H922        H  0.76776346  0.59505641  0.70766914     0.18220
H923        H  0.72776695  0.94263025  0.79141896     0.18220
F924        F  0.73351601  0.92776013  0.71068848    -0.19540
C925        C  0.76385125  0.56092019  0.22849589    -0.20970
C926        C  0.74527068  0.52014433  0.20505629    -0.09010
C927        C  0.72878363  0.97714700  0.22693735     0.29840
C928        C  0.73111197  0.97507788  0.27118412    -0.20970
C929        C  0.74955046  0.51580017  0.29472992    -0.09030
C930        C  0.76604262  0.55889687  0.27289388     0.29850
F931        F  0.78276637  0.59966779  0.29441553    -0.19550
H932        H  0.77679570  0.59440210  0.21237242     0.18220
H933        H  0.71831119  0.94143233  0.28714360     0.18220
F934        F  0.70889679  0.93762212  0.20567710    -0.19540
C935        C  0.50989942  0.72453342  0.22636943    -0.20970
C936        C  0.98582830  0.76503732  0.20594189    -0.09010
C937        C  0.96429277  0.80317327  0.23103702     0.29840
C938        C  0.96744048  0.80083232  0.27529304    -0.20970
C939        C  0.99204747  0.76068627  0.29540595    -0.09030
C940        C  0.51328660  0.72245556  0.27059052     0.29850
F941        F  0.53885558  0.68404207  0.28903842    -0.19550
H942        H  0.52648060  0.69442294  0.20804706     0.18220
H943        H  0.95089012  0.83067420  0.29398466     0.18220
F944        F  0.94191209  0.84374967  0.21298824    -0.19540
loop_ 
_geom_bond_atom_site_label_1 
_geom_bond_atom_site_label_2 
_geom_bond_distance 
_geom_bond_site_symmetry_2 
_ccdc_geom_bond_type 
O1          Zr13   2.387       .  S
O1          C239   1.277       .  A
O2          Zr39   2.481       .  S
O2            C3   1.298       .  A
C3          O237   1.277   1_545  A
C3           C74   1.470       .  S
O4          Zr16   2.390       .  S
O4          C478   1.278       .  A
O5          Zr40   2.478       .  S
O5            C6   1.297       .  A
C6          O476   1.278   1_455  A
C6          C566   1.469       .  S
O7          Zr16   2.391       .  S
O7          C245   1.278       .  A
O8          Zr39   2.478       .  S
O8            C9   1.297       .  A
C9          O243   1.278   1_545  A
C9           C83   1.469       .  S
O10         Zr13   2.384       .  S
O10         C484   1.277       .  A
O11         Zr40   2.481       .  S
O11          C12   1.298       .  A
C12         O482   1.277   1_455  A
C12          C67   1.468       .  S
Zr13         O14   2.434       .  S
Zr13         O15   2.435       .  S
Zr13         O19   2.355       .  S
Zr13         O20   2.356       .  S
Zr13        O515   2.364       .  S
Zr13        O281   2.361       .  S
O14          H57   0.990       .  S
O15          H56   0.990       .  S
O15          H60   0.990       .  S
Zr16         O17   2.439       .  S
Zr16         O18   2.435       .  S
Zr16         O20   2.357       .  S
Zr16         O19   2.356       .  S
Zr16        O280   2.362       .  S
Zr16        O518   2.366       .  S
O17          H58   0.990       .  S
O17          H61   0.990       .  S
O18          H51   0.990       .  S
O19        Zr275   2.381       .  S
O20        Zr512   2.395       .  S
O20          H47   0.965       .  S
O21         Zr33   2.388       .  S
O21         C259   1.277   1_545  A
O22         Zr40   2.484       .  S
O22          C23   1.298       .  A
C23         O257   1.277       .  A
C23         C312   1.472       .  S
O24         Zr36   2.386       .  S
O24         C498   1.277   1_455  A
O25         Zr39   2.478       .  S
O25          C26   1.297       .  A
C26         O496   1.277       .  A
C26          C92   1.468       .  S
O27         Zr36   2.388       .  S
O27         C265   1.278   1_545  A
O28         Zr40   2.484       .  S
O28          C29   1.298       .  A
C29         O263   1.278       .  A
C29         C321   1.472       .  S
O30         Zr33   2.382       .  S
O30         C504   1.276   1_455  A
O31         Zr39   2.480       .  S
O31          C32   1.298       .  A
C32         O502   1.276       .  A
C32         C537   1.467       .  S
Zr33         O34   2.439       .  S
Zr33         O35   2.435       .  S
Zr33         O41   2.356       .  S
Zr33         O42   2.357       .  S
Zr33        O517   2.361   1_455  S
Zr33        O279   2.362   1_545  S
O34          H54   0.990       .  S
O34          H59   0.990       .  S
O35          H55   0.990       .  S
Zr36         O37   2.434       .  S
Zr36         O38   2.434       .  S
Zr36         O42   2.357       .  S
Zr36         O41   2.357       .  S
Zr36        O282   2.361   1_545  S
Zr36        O516   2.360   1_455  S
O37          H53   0.990       .  S
O38          H52   0.990       .  S
O38          H62   0.990       .  S
Zr39         O44   2.404       .  S
Zr39         O45   2.402       .  S
Zr39        O255   2.381   1_545  S
Zr39        O514   2.382       .  S
Zr40         O43   2.403       .  S
Zr40         O46   2.404       .  S
Zr40        O492   2.395   1_455  S
Zr40        O277   2.391       .  S
O41        Zr276   2.391   1_545  S
O41          H49   0.965       .  S
O42        Zr511   2.382   1_455  S
O43        Zr485   2.364   1_455  S
O43        Zr269   2.362       .  S
O44        Zr252   2.362   1_545  S
O44        Zr508   2.360       .  S
O44          H48   0.966       .  S
O45        Zr249   2.361   1_545  S
O45        Zr505   2.361       .  S
O45          H50   0.966       .  S
O46        Zr488   2.366   1_455  S
O46        Zr272   2.361       .  S
C63         C231   1.478       .  S
C63          C64   1.401       .  A
C63          C68   1.400       .  A
C64         C537   1.403       .  A
C64          H69   1.084       .  S
C65         C504   1.467       .  S
C65          C66   1.407   1_655  A
C65         C536   1.403       .  A
C66          C67   1.407       .  A
C66          H70   1.077       .  S
C67         C540   1.403       .  A
C68         C539   1.403       .  A
C68          H71   1.085       .  S
C72         C221   1.487       .  S
C72          C73   1.403       .  A
C72          C77   1.403   1_545  A
C73          C74   1.405       .  A
C73          H78   1.084       .  S
C74          C75   1.408       .  A
C75          C76   1.407   1_545  A
C75          H79   1.077       .  S
C76         C259   1.472       .  S
C76          C77   1.404       .  A
C77          H80   1.085       .  S
C81         C208   1.480       .  S
C81          C82   1.401       .  A
C81          C86   1.402   1_545  A
C82          C83   1.404       .  A
C82          H87   1.085       .  S
C83          C84   1.409       .  A
C84          C85   1.407   1_545  A
C84          H88   1.077       .  S
C85         C265   1.472       .  S
C85          C86   1.403       .  A
C86          H89   1.085       .  S
C90         C198   1.483       .  S
C90          C91   1.403       .  A
C90          C95   1.402       .  A
C91          C92   1.403       .  A
C91          H96   1.084       .  S
C92          C93   1.407       .  A
C93          C94   1.406       .  A
C93         H569   1.077       .  S
C94         C478   1.469       .  S
C94          C95   1.402       .  A
C95          H98   1.084       .  S
H97         C565   1.077       .  S
C99         C218   1.485       .  S
C99         C104   1.404       .  A
C99         C336   1.402   1_545  A
C100        C101   1.401       .  A
C100        C335   1.402       .  A
C100        H105   1.084       .  S
C101        C116   1.467       .  S
C101        C338   1.407       .  A
C102        C103   1.407       .  A
C102        C337   1.407   1_545  A
C102        H106   1.077       .  S
C103        C136   1.472       .  S
C103        C104   1.407       .  A
C104        H107   1.084       .  S
O108       Zr120   2.394       .  S
O108        C110   1.278       .  A
O109       Zr146   2.476       .  S
O109        C110   1.297       .  A
C110        C181   1.469       .  S
O111       Zr123   2.394       .  S
O111        C113   1.278       .  A
O112       Zr147   2.472       .  S
O112        C113   1.296       .  A
C113        C172   1.465       .  S
O114       Zr123   2.388       .  S
O114        C116   1.277       .  A
O115       Zr146   2.476   1_554  S
O115        C116   1.297       .  A
O117       Zr120   2.395       .  S
O117        C119   1.279       .  A
O118       Zr147   2.472   1_556  S
O118        C119   1.296       .  A
C119        C190   1.465       .  S
Zr120       O121   2.434       .  S
Zr120       O122   2.435       .  S
Zr120       O126   2.354       .  S
Zr120       O127   2.356       .  S
Zr120       O150   2.365       .  S
Zr120       O152   2.364       .  S
O121        H164   0.990       .  S
O122        H163   0.990       .  S
O122        H167   0.990       .  S
Zr123       O124   2.439       .  S
Zr123       O125   2.435       .  S
Zr123       O127   2.354   1_554  S
Zr123       O126   2.355   1_554  S
Zr123       O151   2.364       .  S
Zr123       O153   2.366       .  S
O124        H165   0.990       .  S
O124        H168   0.990       .  S
O125        H158   0.990       .  S
O126       Zr146   2.385       .  S
O127       Zr147   2.397   1_556  S
O127        H154   0.965       .  S
O128       Zr140   2.390       .  S
O128        C130   1.277       .  A
O129       Zr147   2.484   1_556  S
O129        C130   1.298       .  A
C130        C183   1.473       .  S
O131       Zr143   2.378       .  S
O131        C133   1.276       .  A
O132       Zr146   2.485   1_554  S
O132        C133   1.298       .  A
C133        C174   1.470       .  S
O134       Zr143   2.382       .  S
O134        C136   1.276       .  A
O135       Zr147   2.489       .  S
O135        C136   1.299       .  A
O137       Zr140   2.382       .  S
O137        C139   1.277       .  A
O138       Zr146   2.483       .  S
O138        C139   1.298       .  A
C139        C192   1.471       .  S
Zr140       O141   2.438       .  S
Zr140       O142   2.435       .  S
Zr140       O148   2.357   1_556  S
Zr140       O149   2.359   1_556  S
Zr140       O152   2.361       .  S
Zr140       O150   2.361       .  S
O141        H161   0.990       .  S
O141        H166   0.990       .  S
O142        H162   0.990       .  S
Zr143       O144   2.434       .  S
Zr143       O145   2.435       .  S
Zr143       O149   2.358       .  S
Zr143       O148   2.358       .  S
Zr143       O153   2.359       .  S
Zr143       O151   2.359       .  S
O144        H160   0.990       .  S
O145        H159   0.990       .  S
O145        H169   0.990       .  S
Zr146       O149   2.380   1_556  S
Zr146       O151   2.403   1_556  S
Zr146       O152   2.405       .  S
Zr147       O148   2.386       .  S
Zr147       O150   2.403   1_554  S
Zr147       O153   2.401       .  S
O148        H156   0.965       .  S
O151        H155   0.966       .  S
O152        H157   0.966       .  S
C170        C228   1.489       .  S
C170        C175   1.405       .  A
C170        C643   1.402       .  A
C171        C172   1.400       .  A
C171        C642   1.402   1_455  A
C171        H176   1.084       .  S
C172        C645   1.406   1_455  A
C173        C174   1.405       .  A
C173        C644   1.406       .  A
C173        H177   1.078       .  S
C174        C175   1.407       .  A
C175        H178   1.084       .  S
C179        C211   1.493       .  S
C179        C184   1.407       .  A
C179        C416   1.406   1_545  A
C180        C181   1.401       .  A
C180        C415   1.406       .  A
C180        H185   1.084       .  S
C181        C418   1.406       .  A
C182        C183   1.406       .  A
C182        C417   1.406   1_545  A
C182        H186   1.077       .  S
C183        C184   1.407       .  A
C184        H187   1.083       .  S
C188        C201   1.483       .  S
C188        C193   1.403       .  A
C188        C661   1.400       .  A
C189        C190   1.400       .  A
C189        C660   1.400   1_455  A
C189        H194   1.085       .  S
C190        C663   1.407   1_455  A
C191        C192   1.406       .  A
C191        C662   1.407       .  A
C191        H195   1.078       .  S
C192        C193   1.406       .  A
C193        H196   1.084       .  S
C197        C198   1.406       .  A
C197        C202   1.397       .  A
C197        H204   1.083       .  S
C198        C671   1.407       .  A
C199        C200   1.397       .  A
C199        C670   1.407   1_455  A
C199        F206   1.358       .  S
C200        C673   1.406   1_455  A
C200        H205   1.083       .  S
C201        C202   1.407       .  A
C201        C672   1.406       .  A
C202        F203   1.357       .  S
C207        C208   1.403       .  A
C207        C212   1.401       .  A
C207        H214   1.083       .  S
C208        C445   1.403   1_545  A
C209        C210   1.396       .  A
C209        C444   1.403       .  A
C209        F216   1.358       .  S
C210        C447   1.408       .  A
C210        H215   1.083       .  S
C211        C212   1.412       .  A
C211        C446   1.408   1_545  A
C212        F213   1.357       .  S
C217        C218   1.405       .  A
C217        C222   1.401       .  A
C217        H224   1.083       .  S
C218        C455   1.408   1_545  A
C219        C220   1.396       .  A
C219        C454   1.408       .  A
C219        F226   1.358       .  S
C220        C457   1.405       .  A
C220        H225   1.083       .  S
C221        C222   1.409       .  A
C221        C456   1.405   1_545  A
C222        F223   1.357       .  S
C227        C232   1.397       .  A
C227        C700   1.408   1_455  A
C227        H234   1.083       .  S
C228        C229   1.410       .  A
C228        C699   1.408       .  A
C229        C230   1.398       .  A
C229        F236   1.357       .  S
C230        C231   1.403       .  A
C230        H235   1.084       .  S
C231        C704   1.404       .  A
C232        C703   1.404   1_455  A
C232        F233   1.358       .  S
O237       Zr249   2.387       .  S
O238       Zr275   2.481       .  S
O238        C239   1.298       .  A
C239        C310   1.470       .  S
O240       Zr252   2.390       .  S
O240        C714   1.278       .  A
O241       Zr276   2.478       .  S
O241        C242   1.297       .  A
C242        O712   1.278   1_455  A
C242        C802   1.469       .  S
O243       Zr252   2.391       .  S
O244       Zr275   2.478       .  S
O244        C245   1.297       .  A
C245        C319   1.469       .  S
O246       Zr249   2.384       .  S
O246        C720   1.277       .  A
O247       Zr276   2.481       .  S
O247        C248   1.298       .  A
C248        O718   1.277   1_455  A
C248        C303   1.468       .  S
Zr249       O250   2.434       .  S
Zr249       O251   2.435       .  S
Zr249       O255   2.355       .  S
Zr249       O256   2.356       .  S
Zr249       O751   2.364       .  S
O250        H293   0.990       .  S
O251        H292   0.990       .  S
O251        H296   0.990       .  S
Zr252       O253   2.439       .  S
Zr252       O254   2.435       .  S
Zr252       O256   2.357       .  S
Zr252       O255   2.356       .  S
Zr252       O754   2.366       .  S
O253        H294   0.990       .  S
O253        H297   0.990       .  S
O254        H287   0.990       .  S
O256       Zr748   2.395       .  S
O256        H283   0.965       .  S
O257       Zr269   2.388       .  S
O258       Zr276   2.484       .  S
O258        C259   1.298       .  A
O260       Zr272   2.386       .  S
O260        C734   1.277   1_455  A
O261       Zr275   2.478       .  S
O261        C262   1.297       .  A
C262        O732   1.277       .  A
C262        C328   1.468       .  S
O263       Zr272   2.388       .  S
O264       Zr276   2.484       .  S
O264        C265   1.298       .  A
O266       Zr269   2.382       .  S
O266        C740   1.276   1_455  A
O267       Zr275   2.480       .  S
O267        C268   1.298       .  A
C268        O738   1.276       .  A
C268        C773   1.467       .  S
Zr269       O270   2.439       .  S
Zr269       O271   2.435       .  S
Zr269       O277   2.356       .  S
Zr269       O278   2.357       .  S
Zr269       O753   2.361   1_455  S
O270        H290   0.990       .  S
O270        H295   0.990       .  S
O271        H291   0.990       .  S
Zr272       O273   2.434       .  S
Zr272       O274   2.434       .  S
Zr272       O278   2.357       .  S
Zr272       O277   2.357       .  S
Zr272       O752   2.360   1_455  S
O273        H289   0.990       .  S
O274        H288   0.990       .  S
O274        H298   0.990       .  S
Zr275       O750   2.382       .  S
Zr275       O280   2.404       .  S
Zr275       O281   2.402       .  S
Zr276       O728   2.395   1_455  S
Zr276       O279   2.403       .  S
Zr276       O282   2.404       .  S
O277        H285   0.965       .  S
O278       Zr747   2.382   1_455  S
O279       Zr721   2.364   1_455  S
O280       Zr744   2.360       .  S
O280        H284   0.966       .  S
O281       Zr741   2.361       .  S
O281        H286   0.966       .  S
O282       Zr724   2.366   1_455  S
C299        C467   1.478       .  S
C299        C300   1.401       .  A
C299        C304   1.400       .  A
C300        C773   1.403       .  A
C300        H305   1.084       .  S
C301        C740   1.467       .  S
C301        C772   1.403       .  A
C301        C302   1.407   1_655  A
C302        C303   1.407       .  A
C302        H306   1.077       .  S
C303        C776   1.403       .  A
C304        C775   1.403       .  A
C304        H307   1.085       .  S
C308        C457   1.487       .  S
C308        C309   1.403       .  A
C308        C313   1.403       .  A
C309        C310   1.405       .  A
C309        H314   1.084       .  S
C310        C311   1.408       .  A
C311        C312   1.407       .  A
C311        H315   1.077       .  S
C312        C313   1.404       .  A
C313        H316   1.085       .  S
C317        C444   1.480       .  S
C317        C318   1.401       .  A
C317        C322   1.402       .  A
C318        C319   1.404       .  A
C318        H323   1.085       .  S
C319        C320   1.409       .  A
C320        C321   1.407       .  A
C320        H324   1.077       .  S
C321        C322   1.403       .  A
C322        H325   1.085       .  S
C326        C434   1.483       .  S
C326        C327   1.403       .  A
C326        C331   1.402       .  A
C327        C328   1.403       .  A
C327        H332   1.084       .  S
C328        C329   1.407       .  A
C329        C330   1.406       .  A
C329        H805   1.077       .  S
C330        C714   1.469       .  S
C330        C331   1.402       .  A
C331        H334   1.084       .  S
H333        C801   1.077       .  S
C335        C454   1.485       .  S
C335        C340   1.404       .  A
C336        C337   1.401       .  A
C336        H341   1.084       .  S
C337        C352   1.467       .  S
C338        C339   1.407       .  A
C338        H342   1.077       .  S
C339        C372   1.472       .  S
C339        C340   1.407       .  A
C340        H343   1.084       .  S
O344       Zr356   2.394       .  S
O344        C346   1.278       .  A
O345       Zr382   2.476       .  S
O345        C346   1.297       .  A
C346        C417   1.469       .  S
O347       Zr359   2.394       .  S
O347        C349   1.278       .  A
O348       Zr383   2.472       .  S
O348        C349   1.296       .  A
C349        C408   1.465       .  S
O350       Zr359   2.388       .  S
O350        C352   1.277       .  A
O351       Zr382   2.476   1_554  S
O351        C352   1.297       .  A
O353       Zr356   2.395       .  S
O353        C355   1.279       .  A
O354       Zr383   2.472   1_556  S
O354        C355   1.296       .  A
C355        C426   1.465       .  S
Zr356       O357   2.434       .  S
Zr356       O358   2.435       .  S
Zr356       O362   2.354       .  S
Zr356       O363   2.356       .  S
Zr356       O386   2.365       .  S
Zr356       O388   2.364       .  S
O357        H400   0.990       .  S
O358        H399   0.990       .  S
O358        H403   0.990       .  S
Zr359       O360   2.439       .  S
Zr359       O361   2.435       .  S
Zr359       O363   2.354   1_554  S
Zr359       O362   2.355   1_554  S
Zr359       O387   2.364       .  S
Zr359       O389   2.366       .  S
O360        H401   0.990       .  S
O360        H404   0.990       .  S
O361        H394   0.990       .  S
O362       Zr382   2.385       .  S
O363       Zr383   2.397   1_556  S
O363        H390   0.965       .  S
O364       Zr376   2.390       .  S
O364        C366   1.277       .  A
O365       Zr383   2.484   1_556  S
O365        C366   1.298       .  A
C366        C419   1.473       .  S
O367       Zr379   2.378       .  S
O367        C369   1.276       .  A
O368       Zr382   2.485   1_554  S
O368        C369   1.298       .  A
C369        C410   1.470       .  S
O370       Zr379   2.382       .  S
O370        C372   1.276       .  A
O371       Zr383   2.489       .  S
O371        C372   1.299       .  A
O373       Zr376   2.382       .  S
O373        C375   1.277       .  A
O374       Zr382   2.483       .  S
O374        C375   1.298       .  A
C375        C428   1.471       .  S
Zr376       O377   2.438       .  S
Zr376       O378   2.435       .  S
Zr376       O384   2.357   1_556  S
Zr376       O385   2.359   1_556  S
Zr376       O388   2.361       .  S
Zr376       O386   2.361       .  S
O377        H397   0.990       .  S
O377        H402   0.990       .  S
O378        H398   0.990       .  S
Zr379       O380   2.434       .  S
Zr379       O381   2.435       .  S
Zr379       O385   2.358       .  S
Zr379       O384   2.358       .  S
Zr379       O389   2.359       .  S
Zr379       O387   2.359       .  S
O380        H396   0.990       .  S
O381        H395   0.990       .  S
O381        H405   0.990       .  S
Zr382       O385   2.380   1_556  S
Zr382       O387   2.403   1_556  S
Zr382       O388   2.405       .  S
Zr383       O384   2.386       .  S
Zr383       O386   2.403   1_554  S
Zr383       O389   2.401       .  S
O384        H392   0.965       .  S
O387        H391   0.966       .  S
O388        H393   0.966       .  S
C406        C464   1.489       .  S
C406        C879   1.402       .  A
C406        C411   1.405       .  A
C407        C878   1.402   1_455  A
C407        C408   1.400       .  A
C407        H412   1.084       .  S
C408        C881   1.406   1_455  A
C409        C880   1.406       .  A
C409        C410   1.405       .  A
C409        H413   1.078       .  S
C410        C411   1.407       .  A
C411        H414   1.084       .  S
C415        C447   1.493       .  S
C415        C420   1.407       .  A
C416        C417   1.401       .  A
C416        H421   1.084       .  S
C418        C419   1.406       .  A
C418        H422   1.077       .  S
C419        C420   1.407       .  A
C420        H423   1.083       .  S
C424        C437   1.483       .  S
C424        C897   1.400       .  A
C424        C429   1.403       .  A
C425        C896   1.400   1_455  A
C425        C426   1.400       .  A
C425        H430   1.085       .  S
C426        C899   1.407   1_455  A
C427        C898   1.407       .  A
C427        C428   1.406       .  A
C427        H431   1.078       .  S
C428        C429   1.406       .  A
C429        H432   1.084       .  S
C433        C434   1.406       .  A
C433        C438   1.397       .  A
C433        H440   1.083       .  S
C434        C907   1.407       .  A
C435        C906   1.407   1_455  A
C435        C436   1.397       .  A
C435        F442   1.358       .  S
C436        C909   1.406   1_455  A
C436        H441   1.083       .  S
C437        C908   1.406       .  A
C437        C438   1.407       .  A
C438        F439   1.357       .  S
C443        C444   1.403       .  A
C443        C448   1.401       .  A
C443        H450   1.083       .  S
C445        C446   1.396       .  A
C445        F452   1.358       .  S
C446        H451   1.083       .  S
C447        C448   1.412       .  A
C448        F449   1.357       .  S
C453        C454   1.405       .  A
C453        C458   1.401       .  A
C453        H460   1.083       .  S
C455        C456   1.396       .  A
C455        F462   1.358       .  S
C456        H461   1.083       .  S
C457        C458   1.409       .  A
C458        F459   1.357       .  S
C463        C936   1.408   1_455  A
C463        C468   1.397       .  A
C463        H470   1.083       .  S
C464        C935   1.408       .  A
C464        C465   1.410       .  A
C465        C466   1.398       .  A
C465        F472   1.357       .  S
C466        C467   1.403       .  A
C466        H471   1.084       .  S
C467        C940   1.404       .  A
C468        C939   1.404   1_455  A
C468        F469   1.358       .  S
O473       Zr485   2.387       .  S
O473        C711   1.277       .  A
O474       Zr511   2.481       .  S
O474        C475   1.298       .  A
C475        O709   1.277   1_545  A
C475        C546   1.470       .  S
O476       Zr488   2.390       .  S
O477       Zr512   2.478       .  S
O477        C478   1.297       .  A
O479       Zr488   2.391       .  S
O479        C717   1.278       .  A
O480       Zr511   2.478       .  S
O480        C481   1.297       .  A
C481        O715   1.278   1_545  A
C481        C555   1.469       .  S
O482       Zr485   2.384       .  S
O483       Zr512   2.481       .  S
O483        C484   1.298       .  A
C484        C539   1.468       .  S
Zr485       O486   2.434       .  S
Zr485       O487   2.435       .  S
Zr485       O491   2.355       .  S
Zr485       O492   2.356       .  S
Zr485       O753   2.361       .  S
O486        H529   0.990       .  S
O487        H528   0.990       .  S
O487        H532   0.990       .  S
Zr488       O489   2.439       .  S
Zr488       O490   2.435       .  S
Zr488       O492   2.357       .  S
Zr488       O491   2.356       .  S
Zr488       O752   2.362       .  S
O489        H530   0.990       .  S
O489        H533   0.990       .  S
O490        H523   0.990       .  S
O491       Zr747   2.381       .  S
O492        H519   0.965       .  S
O493       Zr505   2.388       .  S
O493        C731   1.277   1_545  A
O494       Zr512   2.484       .  S
O494        C495   1.298       .  A
C495        O729   1.277       .  A
C495        C784   1.472       .  S
O496       Zr508   2.386       .  S
O497       Zr511   2.478       .  S
O497        C498   1.297       .  A
C498        C564   1.468       .  S
O499       Zr508   2.388       .  S
O499        C737   1.278   1_545  A
O500       Zr512   2.484       .  S
O500        C501   1.298       .  A
C501        O735   1.278       .  A
C501        C793   1.472       .  S
O502       Zr505   2.382       .  S
O503       Zr511   2.480       .  S
O503        C504   1.298       .  A
Zr505       O506   2.439       .  S
Zr505       O507   2.435       .  S
Zr505       O513   2.356       .  S
Zr505       O514   2.357       .  S
Zr505       O751   2.362   1_545  S
O506        H526   0.990       .  S
O506        H531   0.990       .  S
O507        H527   0.990       .  S
Zr508       O509   2.434       .  S
Zr508       O510   2.434       .  S
Zr508       O514   2.357       .  S
Zr508       O513   2.357       .  S
Zr508       O754   2.361   1_545  S
O509        H525   0.990       .  S
O510        H524   0.990       .  S
O510        H534   0.990       .  S
Zr511       O727   2.381   1_545  S
Zr511       O516   2.404       .  S
Zr511       O517   2.402       .  S
Zr512       O749   2.391       .  S
Zr512       O515   2.403       .  S
Zr512       O518   2.404       .  S
O513       Zr748   2.391   1_545  S
O513        H521   0.965       .  S
O515       Zr741   2.362       .  S
O516       Zr724   2.362   1_545  S
O516        H520   0.966       .  S
O517       Zr721   2.361   1_545  S
O517        H522   0.966       .  S
O518       Zr744   2.361       .  S
C535        C703   1.478       .  S
C535        C536   1.401       .  A
C535        C540   1.400   1_655  A
C536        H541   1.084       .  S
C537        C538   1.407       .  A
C538        C539   1.407       .  A
C538        H542   1.077       .  S
C540        H543   1.085       .  S
C544        C693   1.487       .  S
C544        C545   1.403       .  A
C544        C549   1.403   1_545  A
C545        C546   1.405       .  A
C545        H550   1.084       .  S
C546        C547   1.408       .  A
C547        C548   1.407   1_545  A
C547        H551   1.077       .  S
C548        C731   1.472       .  S
C548        C549   1.404       .  A
C549        H552   1.085       .  S
C553        C680   1.480       .  S
C553        C554   1.401       .  A
C553        C558   1.402   1_545  A
C554        C555   1.404       .  A
C554        H559   1.085       .  S
C555        C556   1.409       .  A
C556        C557   1.407   1_545  A
C556        H560   1.077       .  S
C557        C737   1.472       .  S
C557        C558   1.403       .  A
C558        H561   1.085       .  S
C562        C670   1.483       .  S
C562        C563   1.403       .  A
C562        C567   1.402   1_655  A
C563        C564   1.403       .  A
C563        H568   1.084       .  S
C564        C565   1.407   1_655  A
C565        C566   1.406       .  A
C566        C567   1.402       .  A
C567        H570   1.084       .  S
C571        C690   1.485       .  S
C571        C808   1.402   1_545  A
C571        C576   1.404       .  A
C572        C807   1.402       .  A
C572        C573   1.401       .  A
C572        H577   1.084       .  S
C573        C588   1.467       .  S
C573        C810   1.407       .  A
C574        C809   1.407   1_545  A
C574        C575   1.407       .  A
C574        H578   1.077       .  S
C575        C608   1.472       .  S
C575        C576   1.407       .  A
C576        H579   1.084       .  S
O580       Zr592   2.394       .  S
O580        C582   1.278       .  A
O581       Zr618   2.476       .  S
O581        C582   1.297       .  A
C582        C653   1.469       .  S
O583       Zr595   2.394       .  S
O583        C585   1.278       .  A
O584       Zr619   2.472       .  S
O584        C585   1.296       .  A
C585        C644   1.465       .  S
O586       Zr595   2.388       .  S
O586        C588   1.277       .  A
O587       Zr618   2.476   1_554  S
O587        C588   1.297       .  A
O589       Zr592   2.395       .  S
O589        C591   1.279       .  A
O590       Zr619   2.472   1_556  S
O590        C591   1.296       .  A
C591        C662   1.465       .  S
Zr592       O593   2.434       .  S
Zr592       O594   2.435       .  S
Zr592       O598   2.354       .  S
Zr592       O599   2.356       .  S
Zr592       O622   2.365       .  S
Zr592       O624   2.364       .  S
O593        H636   0.990       .  S
O594        H635   0.990       .  S
O594        H639   0.990       .  S
Zr595       O596   2.439       .  S
Zr595       O597   2.435       .  S
Zr595       O599   2.354   1_554  S
Zr595       O598   2.355   1_554  S
Zr595       O623   2.364       .  S
Zr595       O625   2.366       .  S
O596        H637   0.990       .  S
O596        H640   0.990       .  S
O597        H630   0.990       .  S
O598       Zr618   2.385       .  S
O599       Zr619   2.397   1_556  S
O599        H626   0.965       .  S
O600       Zr612   2.390       .  S
O600        C602   1.277       .  A
O601       Zr619   2.484   1_556  S
O601        C602   1.298       .  A
C602        C655   1.473       .  S
O603       Zr615   2.378       .  S
O603        C605   1.276       .  A
O604       Zr618   2.485   1_554  S
O604        C605   1.298       .  A
C605        C646   1.470       .  S
O606       Zr615   2.382       .  S
O606        C608   1.276       .  A
O607       Zr619   2.489       .  S
O607        C608   1.299       .  A
O609       Zr612   2.382       .  S
O609        C611   1.277       .  A
O610       Zr618   2.483       .  S
O610        C611   1.298       .  A
C611        C664   1.471       .  S
Zr612       O613   2.438       .  S
Zr612       O614   2.435       .  S
Zr612       O620   2.357   1_556  S
Zr612       O621   2.359   1_556  S
Zr612       O624   2.361       .  S
Zr612       O622   2.361       .  S
O613        H633   0.990       .  S
O613        H638   0.990       .  S
O614        H634   0.990       .  S
Zr615       O616   2.434       .  S
Zr615       O617   2.435       .  S
Zr615       O621   2.358       .  S
Zr615       O620   2.358       .  S
Zr615       O625   2.359       .  S
Zr615       O623   2.359       .  S
O616        H632   0.990       .  S
O617        H631   0.990       .  S
O617        H641   0.990       .  S
Zr618       O621   2.380   1_556  S
Zr618       O623   2.403   1_556  S
Zr618       O624   2.405       .  S
Zr619       O620   2.386       .  S
Zr619       O622   2.403   1_554  S
Zr619       O625   2.401       .  S
O620        H628   0.965       .  S
O623        H627   0.966       .  S
O624        H629   0.966       .  S
C642        C700   1.489       .  S
C642        C647   1.405       .  A
C643        C644   1.400       .  A
C643        H648   1.084       .  S
C645        C646   1.405       .  A
C645        H649   1.078       .  S
C646        C647   1.407       .  A
C647        H650   1.084       .  S
C651        C683   1.493       .  S
C651        C888   1.406   1_545  A
C651        C656   1.407       .  A
C652        C887   1.406       .  A
C652        C653   1.401       .  A
C652        H657   1.084       .  S
C653        C890   1.406       .  A
C654        C889   1.406   1_545  A
C654        C655   1.406       .  A
C654        H658   1.077       .  S
C655        C656   1.407       .  A
C656        H659   1.083       .  S
C660        C673   1.483       .  S
C660        C665   1.403       .  A
C661        C662   1.400       .  A
C661        H666   1.085       .  S
C663        C664   1.406       .  A
C663        H667   1.078       .  S
C664        C665   1.406       .  A
C665        H668   1.084       .  S
C669        C670   1.406       .  A
C669        C674   1.397       .  A
C669        H676   1.083       .  S
C671        C672   1.397       .  A
C671        F678   1.358       .  S
C672        H677   1.083       .  S
C673        C674   1.407       .  A
C674        F675   1.357       .  S
C679        C680   1.403       .  A
C679        C684   1.401       .  A
C679        H686   1.083       .  S
C680        C917   1.403   1_545  A
C681        C916   1.403       .  A
C681        C682   1.396       .  A
C681        F688   1.358       .  S
C682        C919   1.408       .  A
C682        H687   1.083       .  S
C683        C918   1.408   1_545  A
C683        C684   1.412       .  A
C684        F685   1.357       .  S
C689        C690   1.405       .  A
C689        C694   1.401       .  A
C689        H696   1.083       .  S
C690        C927   1.408   1_545  A
C691        C926   1.408       .  A
C691        C692   1.396       .  A
C691        F698   1.358       .  S
C692        C929   1.405       .  A
C692        H697   1.083       .  S
C693        C928   1.405   1_545  A
C693        C694   1.409       .  A
C694        F695   1.357       .  S
C699        C704   1.397       .  A
C699        H706   1.083       .  S
C700        C701   1.410       .  A
C701        C702   1.398       .  A
C701        F708   1.357       .  S
C702        C703   1.403       .  A
C702        H707   1.084       .  S
C704        F705   1.358       .  S
O709       Zr721   2.387       .  S
O710       Zr747   2.481       .  S
O710        C711   1.298       .  A
C711        C782   1.470       .  S
O712       Zr724   2.390       .  S
O713       Zr748   2.478       .  S
O713        C714   1.297       .  A
O715       Zr724   2.391       .  S
O716       Zr747   2.478       .  S
O716        C717   1.297       .  A
C717        C791   1.469       .  S
O718       Zr721   2.384       .  S
O719       Zr748   2.481       .  S
O719        C720   1.298       .  A
C720        C775   1.468       .  S
Zr721       O722   2.434       .  S
Zr721       O723   2.435       .  S
Zr721       O727   2.355       .  S
Zr721       O728   2.356       .  S
O722        H765   0.990       .  S
O723        H764   0.990       .  S
O723        H768   0.990       .  S
Zr724       O725   2.439       .  S
Zr724       O726   2.435       .  S
Zr724       O728   2.357       .  S
Zr724       O727   2.356       .  S
O725        H766   0.990       .  S
O725        H769   0.990       .  S
O726        H759   0.990       .  S
O728        H755   0.965       .  S
O729       Zr741   2.388       .  S
O730       Zr748   2.484       .  S
O730        C731   1.298       .  A
O732       Zr744   2.386       .  S
O733       Zr747   2.478       .  S
O733        C734   1.297       .  A
C734        C800   1.468       .  S
O735       Zr744   2.388       .  S
O736       Zr748   2.484       .  S
O736        C737   1.298       .  A
O738       Zr741   2.382       .  S
O739       Zr747   2.480       .  S
O739        C740   1.298       .  A
Zr741       O742   2.439       .  S
Zr741       O743   2.435       .  S
Zr741       O749   2.356       .  S
Zr741       O750   2.357       .  S
O742        H762   0.990       .  S
O742        H767   0.990       .  S
O743        H763   0.990       .  S
Zr744       O745   2.434       .  S
Zr744       O746   2.434       .  S
Zr744       O750   2.357       .  S
Zr744       O749   2.357       .  S
O745        H761   0.990       .  S
O746        H760   0.990       .  S
O746        H770   0.990       .  S
Zr747       O752   2.404       .  S
Zr747       O753   2.402       .  S
Zr748       O751   2.403       .  S
Zr748       O754   2.404       .  S
O749        H757   0.965       .  S
O752        H756   0.966       .  S
O753        H758   0.966       .  S
C771        C939   1.478       .  S
C771        C772   1.401       .  A
C771        C776   1.400   1_655  A
C772        H777   1.084       .  S
C773        C774   1.407       .  A
C774        C775   1.407       .  A
C774        H778   1.077       .  S
C776        H779   1.085       .  S
C780        C929   1.487       .  S
C780        C781   1.403       .  A
C780        C785   1.403       .  A
C781        C782   1.405       .  A
C781        H786   1.084       .  S
C782        C783   1.408       .  A
C783        C784   1.407       .  A
C783        H787   1.077       .  S
C784        C785   1.404       .  A
C785        H788   1.085       .  S
C789        C916   1.480       .  S
C789        C790   1.401       .  A
C789        C794   1.402       .  A
C790        C791   1.404       .  A
C790        H795   1.085       .  S
C791        C792   1.409       .  A
C792        C793   1.407       .  A
C792        H796   1.077       .  S
C793        C794   1.403       .  A
C794        H797   1.085       .  S
C798        C906   1.483       .  S
C798        C799   1.403       .  A
C798        C803   1.402   1_655  A
C799        C800   1.403       .  A
C799        H804   1.084       .  S
C800        C801   1.407   1_655  A
C801        C802   1.406       .  A
C802        C803   1.402       .  A
C803        H806   1.084       .  S
C807        C926   1.485       .  S
C807        C812   1.404       .  A
C808        C809   1.401       .  A
C808        H813   1.084       .  S
C809        C824   1.467       .  S
C810        C811   1.407       .  A
C810        H814   1.077       .  S
C811        C844   1.472       .  S
C811        C812   1.407       .  A
C812        H815   1.084       .  S
O816       Zr828   2.394       .  S
O816        C818   1.278       .  A
O817       Zr854   2.476       .  S
O817        C818   1.297       .  A
C818        C889   1.469       .  S
O819       Zr831   2.394       .  S
O819        C821   1.278       .  A
O820       Zr855   2.472       .  S
O820        C821   1.296       .  A
C821        C880   1.465       .  S
O822       Zr831   2.388       .  S
O822        C824   1.277       .  A
O823       Zr854   2.476   1_554  S
O823        C824   1.297       .  A
O825       Zr828   2.395       .  S
O825        C827   1.279       .  A
O826       Zr855   2.472   1_556  S
O826        C827   1.296       .  A
C827        C898   1.465       .  S
Zr828       O829   2.434       .  S
Zr828       O830   2.435       .  S
Zr828       O834   2.354       .  S
Zr828       O835   2.356       .  S
Zr828       O858   2.365       .  S
Zr828       O860   2.364       .  S
O829        H872   0.990       .  S
O830        H871   0.990       .  S
O830        H875   0.990       .  S
Zr831       O832   2.439       .  S
Zr831       O833   2.435       .  S
Zr831       O835   2.354   1_554  S
Zr831       O834   2.355   1_554  S
Zr831       O859   2.364       .  S
Zr831       O861   2.366       .  S
O832        H873   0.990       .  S
O832        H876   0.990       .  S
O833        H866   0.990       .  S
O834       Zr854   2.385       .  S
O835       Zr855   2.397   1_556  S
O835        H862   0.965       .  S
O836       Zr848   2.390       .  S
O836        C838   1.277       .  A
O837       Zr855   2.484   1_556  S
O837        C838   1.298       .  A
C838        C891   1.473       .  S
O839       Zr851   2.378       .  S
O839        C841   1.276       .  A
O840       Zr854   2.485   1_554  S
O840        C841   1.298       .  A
C841        C882   1.470       .  S
O842       Zr851   2.382       .  S
O842        C844   1.276       .  A
O843       Zr855   2.489       .  S
O843        C844   1.299       .  A
O845       Zr848   2.382       .  S
O845        C847   1.277       .  A
O846       Zr854   2.483       .  S
O846        C847   1.298       .  A
C847        C900   1.471       .  S
Zr848       O849   2.438       .  S
Zr848       O850   2.435       .  S
Zr848       O856   2.357   1_556  S
Zr848       O857   2.359   1_556  S
Zr848       O860   2.361       .  S
Zr848       O858   2.361       .  S
O849        H869   0.990       .  S
O849        H874   0.990       .  S
O850        H870   0.990       .  S
Zr851       O852   2.434       .  S
Zr851       O853   2.435       .  S
Zr851       O857   2.358       .  S
Zr851       O856   2.358       .  S
Zr851       O861   2.359       .  S
Zr851       O859   2.359       .  S
O852        H868   0.990       .  S
O853        H867   0.990       .  S
O853        H877   0.990       .  S
Zr854       O857   2.380   1_556  S
Zr854       O859   2.403   1_556  S
Zr854       O860   2.405       .  S
Zr855       O856   2.386       .  S
Zr855       O858   2.403   1_554  S
Zr855       O861   2.401       .  S
O856        H864   0.965       .  S
O859        H863   0.966       .  S
O860        H865   0.966       .  S
C878        C936   1.489       .  S
C878        C883   1.405       .  A
C879        C880   1.400       .  A
C879        H884   1.084       .  S
C881        C882   1.405       .  A
C881        H885   1.078       .  S
C882        C883   1.407       .  A
C883        H886   1.084       .  S
C887        C919   1.493       .  S
C887        C892   1.407       .  A
C888        C889   1.401       .  A
C888        H893   1.084       .  S
C890        C891   1.406       .  A
C890        H894   1.077       .  S
C891        C892   1.407       .  A
C892        H895   1.083       .  S
C896        C909   1.483       .  S
C896        C901   1.403       .  A
C897        C898   1.400       .  A
C897        H902   1.085       .  S
C899        C900   1.406       .  A
C899        H903   1.078       .  S
C900        C901   1.406       .  A
C901        H904   1.084       .  S
C905        C906   1.406       .  A
C905        C910   1.397       .  A
C905        H912   1.083       .  S
C907        C908   1.397       .  A
C907        F914   1.358       .  S
C908        H913   1.083       .  S
C909        C910   1.407       .  A
C910        F911   1.357       .  S
C915        C916   1.403       .  A
C915        C920   1.401       .  A
C915        H922   1.083       .  S
C917        C918   1.396       .  A
C917        F924   1.358       .  S
C918        H923   1.083       .  S
C919        C920   1.412       .  A
C920        F921   1.357       .  S
C925        C926   1.405       .  A
C925        C930   1.401       .  A
C925        H932   1.083       .  S
C927        C928   1.396       .  A
C927        F934   1.358       .  S
C928        H933   1.083       .  S
C929        C930   1.409       .  A
C930        F931   1.357       .  S
C935        C940   1.397       .  A
C935        H942   1.083       .  S
C936        C937   1.410       .  A
C937        C938   1.398       .  A
C937        F944   1.357       .  S
C938        C939   1.403       .  A
C938        H943   1.084       .  S
C940        F941   1.358       .  S
