geometry optimzed in LAMMPS
_audit_creation_date              2020-11-30 
_audit_creation_method            'lammps2cif' 
_symmetry_space_group_name_H-M    'P1' 
_symmetry_Int_Tables_number       1 
_symmetry_cell_setting            triclinic 
loop_ 
_symmetry_equiv_pos_as_xyz 
  x,y,z 
_cell_length_a                    59.57799354 
_cell_length_b                    59.53882286793551 
_cell_length_c                    38.145902136726555 
_cell_angle_alpha                 89.97996569567358 
_cell_angle_beta                  90.05516451334441 
_cell_angle_gamma                 89.89163022606337 
loop_ 
_atom_site_label 
_atom_site_type_symbol 
_atom_site_fract_x 
_atom_site_fract_y 
_atom_site_fract_z 
_atom_site_charge 
In1        In  0.89208059  0.39297446  0.74854510     1.36900
C2          C  0.88916616  0.43756609  0.75242522     0.77500
O3          O  0.86003543  0.38845455  0.77874752    -0.60900
O4          O  0.88996300  0.37403858  0.79904526    -0.51800
C5          C  0.87531771  0.36833336  0.69615443     0.70200
O6          O  0.86877548  0.38799365  0.70282968    -0.46700
C7          C  0.93653401  0.38992580  0.74667373     0.74900
O8          O  0.88615739  0.42697582  0.72429935    -0.58500
O9          O  0.92507170  0.38373391  0.77257785    -0.48600
O10         O  0.89315325  0.42541354  0.77869648    -0.55000
C11         C  0.86929072  0.37750684  0.80311237     0.85100
O12         O  0.89035038  0.36114667  0.71659478    -0.56800
O13         O  0.92526962  0.39685819  0.72083350    -0.60100
In14       In  0.00546318  0.39292902  0.75130741     1.36900
C15         C  0.00792645  0.43761329  0.75359120     0.77500
O16         O  0.97285318  0.39603872  0.72179093    -0.60900
O17         O  0.97195785  0.38492734  0.77465996    -0.51800
C18         C  0.02179189  0.36652171  0.70076460     0.70200
O19         O  0.02731011  0.38683460  0.70413979    -0.46700
C20         C  0.02971346  0.37877039  0.80538708     0.74900
O21         O  0.01181518  0.42652924  0.72615476    -0.58500
O22         O  0.00953332  0.37311364  0.80098760    -0.48600
O23         O  0.00327048  0.42588628  0.78011348    -0.55000
C24         C  0.96105645  0.39002953  0.74748748     0.85100
O25         O  0.00807518  0.35971215  0.72349677    -0.56800
O26         O  0.03752771  0.39145712  0.78193290    -0.60100
In27       In  0.89145057  0.50664409  0.75648022     1.36900
C28         C  0.88893975  0.46209190  0.75434958     0.77500
O29         O  0.92457848  0.50607461  0.72803093    -0.60900
O30         O  0.92487620  0.51252272  0.78263546    -0.51800
C31         C  0.87699341  0.53359267  0.70577791     0.70200
O32         O  0.87267327  0.51289762  0.70656344    -0.46700
C33         C  0.86524153  0.51968315  0.80930298     0.74900
O34         O  0.88445557  0.47428181  0.72826099    -0.58500
O35         O  0.88564190  0.52500758  0.80691235    -0.48600
O36         O  0.89395066  0.47264722  0.78182116    -0.55000
C37         C  0.93613266  0.50975492  0.75504767     0.85100
O38         O  0.88825285  0.54071827  0.73145484    -0.56800
O39         O  0.85815862  0.50767010  0.78444152    -0.60100
In40       In  0.00547765  0.50690706  0.75457088     1.36900
C41         C  0.96074026  0.50985370  0.75464158     0.77500
O42         O  0.00989222  0.53952179  0.72585869    -0.60900
O43         O  0.02599561  0.51073674  0.70544138    -0.51800
C44         C  0.03088268  0.52283846  0.80631529     0.70200
O45         O  0.01142751  0.53013438  0.80000469    -0.46700
C46         C  0.00800466  0.46222942  0.75443134     0.74900
O47         O  0.97232783  0.51149872  0.78211746    -0.58500
O48         O  0.01116870  0.47392157  0.72732720    -0.48600
O49         O  0.97198040  0.50747319  0.72696470    -0.55000
C50         C  0.02215081  0.53144420  0.70207213     0.85100
O51         O  0.03730849  0.50735004  0.78612514    -0.56800
O52         O  0.00425518  0.47335498  0.78187770    -0.60100
In53       In  0.38952261  0.89121447  0.24398693     1.36900
C54         C  0.43409661  0.89075621  0.24370051     0.77500
O55         O  0.39127629  0.86023887  0.21023355    -0.60900
O56         O  0.36429792  0.88265297  0.20180947    -0.51800
C57         C  0.36746046  0.87542245  0.29954839     0.70200
O58         O  0.38759356  0.87044499  0.29301657    -0.46700
C59         C  0.38612273  0.93585457  0.24234368     0.74900
O60         O  0.42279335  0.88531169  0.27029572    -0.58500
O61         O  0.38455328  0.92395438  0.21522226    -0.48600
O62         O  0.42265470  0.89555155  0.21694909    -0.55000
C63         C  0.37394871  0.86475410  0.19261701     0.85100
O64         O  0.35853028  0.88832010  0.27728206    -0.56800
O65         O  0.38854633  0.92495370  0.27040371    -0.60100
In66       In  0.38657934  0.00524669  0.24045167     1.36900
C67         C  0.38584681  0.96044903  0.24156542     0.77500
O68         O  0.42108737  0.00685308  0.21670700    -0.60900
O69         O  0.41813573  0.01161889  0.27162052    -0.51800
C70         C  0.36893499  0.02552986  0.18457381     0.70200
O71         O  0.36001007  0.00863808  0.19867193    -0.46700
C72         C  0.36201849  0.02308671  0.29173475     0.74900
O73         O  0.38470460  0.97155924  0.21348209    -0.58500
O74         O  0.38009361  0.03181972  0.28137223    -0.48600
O75         O  0.38725215  0.97216085  0.26886804    -0.55000
C76         C  0.43094589  0.01034423  0.24544464     0.85100
O77         O  0.38654795  0.03231349  0.19946052    -0.56800
O78         O  0.35620456  0.00588751  0.27484780    -0.60100
In79       In  0.50011341  0.01145788  0.25304979     1.36900
C80         C  0.45546210  0.01194492  0.24817094     0.77500
O81         O  0.50146491  0.04489487  0.22537018    -0.60900
O82         O  0.52409105  0.01948235  0.20916783    -0.51800
C83         C  0.52344708  0.02590332  0.30834500     0.70200
O84         O  0.50420004  0.03334122  0.30078326    -0.46700
C85         C  0.50349718  0.96676975  0.25042405     0.74900
O86         O  0.46558105  0.01468078  0.27692191    -0.58500
O87         O  0.50727209  0.97911461  0.22415195    -0.48600
O88         O  0.46810858  0.00990709  0.22194848    -0.55000
C89         C  0.51714132  0.03933360  0.20497281     0.85100
O90         O  0.53062036  0.01091322  0.28787682    -0.56800
O91         O  0.49871447  0.97727293  0.27807480    -0.60100
In92       In  0.50292873  0.89717793  0.24582894     1.36900
C93         C  0.50398915  0.94210139  0.24876738     0.77500
O94         O  0.46983555  0.89781198  0.21759266    -0.60900
O95         O  0.47002939  0.88885884  0.27150691    -0.51800
C96         C  0.51974661  0.87213401  0.19384248     0.70200
O97         O  0.52616267  0.89192941  0.19994227    -0.46700
C98         C  0.52809701  0.88073553  0.29759604     0.74900
O99         O  0.50736343  0.93135229  0.22084968    -0.58500
O100        O  0.50772081  0.87577046  0.29353860    -0.48600
O101        O  0.50049273  0.92995303  0.27526062    -0.55000
C102        C  0.45860539  0.89226855  0.24421567     0.85100
O103        O  0.50450233  0.86531613  0.21405706    -0.56800
O104        O  0.53559073  0.89449773  0.27540347    -0.60100
In105      In  0.81969752  0.64801722  0.43880717     1.36900
C106        C  0.82750598  0.62555350  0.49790892     0.77500
O107        O  0.85349120  0.63705123  0.42037686    -0.60900
O108        O  0.84978932  0.67076181  0.43747593    -0.51800
C109        C  0.80221870  0.63438204  0.37820009     0.70200
O110        O  0.80182663  0.62235595  0.40548853    -0.46700
C111        C  0.78855954  0.67729483  0.45729051     0.74900
O112        O  0.82380781  0.61585776  0.46904918    -0.58500
O113        O  0.80749849  0.68323845  0.44572277    -0.48600
O114        O  0.82582910  0.64660689  0.49668798    -0.55000
C115        C  0.86287119  0.65549775  0.42701109     0.85100
O116        O  0.81150565  0.65322811  0.38209570    -0.56800
O117        O  0.78549017  0.65633606  0.45859848    -0.60100
In118      In  0.07313775  0.64832341  0.43471044     1.36900
C119        C  0.06899783  0.62211559  0.49098422     0.77500
O120        O  0.10902686  0.65694308  0.44717584    -0.60900
O121        O  0.08433874  0.68240816  0.45172624    -0.51800
C122        C  0.08491251  0.63835084  0.36922716     0.70200
O123        O  0.08622253  0.62426981  0.39389281    -0.46700
C124        C  0.03016531  0.65713639  0.42487861     0.74900
O125        O  0.07772967  0.61524287  0.46280045    -0.58500
O126        O  0.04430430  0.67233795  0.43124416    -0.48600
O127        O  0.06308618  0.64242291  0.49045469    -0.55000
C128        C  0.10473910  0.67714650  0.45448410     0.85100
O129        O  0.07747081  0.65730573  0.37814960    -0.56800
O130        O  0.03819083  0.63756936  0.42281864    -0.60100
In131      In  0.15146669  0.57864704  0.06579390     1.36900
C132        C  0.12435352  0.57475713  0.01060273     0.77500
O133        O  0.16392784  0.61036331  0.04137640    -0.60900
O134        O  0.18810663  0.58820784  0.06320584    -0.51800
C135        C  0.13843401  0.59536430  0.12778726     0.70200
O136        O  0.13392405  0.60455355  0.09894854    -0.46700
C137        C  0.15765213  0.53481329  0.07352970     0.74900
O138        O  0.11770740  0.58217190  0.03978690    -0.58500
O139        O  0.17366559  0.54808409  0.06699811    -0.48600
O140        O  0.14495475  0.57001025  0.00976639    -0.55000
C141        C  0.18429707  0.60648091  0.04753020     0.85100
O142        O  0.14955969  0.57750360  0.12466568    -0.56800
O143        O  0.13873187  0.54411730  0.07709895    -0.60100
In144      In  0.15491813  0.32427387  0.06160414     1.36900
C145        C  0.12749775  0.33012959  0.00714235     0.77500
O146        O  0.14236425  0.35877275  0.07316086    -0.60900
O147        O  0.17770916  0.35320887  0.07173055    -0.51800
C148        C  0.14356417  0.31050012  0.12555787     0.70200
O149        O  0.13398008  0.30329189  0.09831031    -0.46700
C150        C  0.18698835  0.29624964  0.03968976     0.74900
O151        O  0.12151554  0.31991634  0.03454053    -0.58500
O152        O  0.18981322  0.31711441  0.04207123    -0.48600
O153        O  0.14766924  0.33630640  0.00741596    -0.55000
C154        C  0.16180593  0.36707094  0.07540841     0.85100
O155        O  0.15893460  0.32441033  0.11960481    -0.56800
O156        O  0.16777524  0.28968627  0.04874683    -0.60100
In157      In  0.74436226  0.57346056  0.07029487     1.36900
C158        C  0.77121647  0.56692405  0.01576166     0.77500
O159        O  0.75474998  0.53967728  0.08931097    -0.60900
O160        O  0.72095849  0.54376867  0.07294359    -0.51800
C161        C  0.75410432  0.58880600  0.13448233     0.70200
O162        O  0.76893974  0.58408455  0.11208625    -0.46700
C163        C  0.71643589  0.60435561  0.04519202     0.74900
O164        O  0.77739359  0.57800853  0.04228520    -0.58500
O165        O  0.70991087  0.58520690  0.05496360    -0.48600
O166        O  0.75129434  0.55995364  0.01696450    -0.55000
C167        C  0.73596682  0.53061899  0.08415814     0.85100
O168        O  0.73434018  0.58617458  0.12350514    -0.56800
O169        O  0.73730305  0.60756966  0.04787469    -0.60100
In170      In  0.75201424  0.32035609  0.06672120     1.36900
C171        C  0.77832221  0.32810507  0.01135343     0.77500
O172        O  0.74135399  0.28641991  0.04695981    -0.60900
O173        O  0.71679317  0.31204848  0.05062353    -0.51800
C174        C  0.76296940  0.30218190  0.12810982     0.70200
O175        O  0.77569816  0.30128494  0.10170978    -0.46700
C176        C  0.74611018  0.36333348  0.08365603     0.74900
O177        O  0.78594238  0.32112005  0.04021733    -0.58500
O178        O  0.73066450  0.35148824  0.07072215    -0.48600
O179        O  0.75729402  0.32982522  0.01047752    -0.55000
C180        C  0.72117750  0.29209194  0.04190250     0.85100
O181        O  0.74426463  0.31152979  0.12265983    -0.56800
O182        O  0.76406687  0.35281618  0.08940489    -0.60100
In183      In  0.82338954  0.24367577  0.43655296     1.36900
C184        C  0.82987831  0.27055679  0.49185143     0.77500
O185        O  0.78992138  0.23435066  0.45934489    -0.60900
O186        O  0.81327575  0.20824808  0.44909457    -0.51800
C187        C  0.80743221  0.25422349  0.37288843     0.70200
O188        O  0.81179459  0.26874867  0.39595760    -0.46700
C189        C  0.86622622  0.23638658  0.42144083     0.74900
O190        O  0.81757892  0.27607316  0.46625137    -0.58500
O191        O  0.85374506  0.22118537  0.43359248    -0.48600
O192        O  0.83785290  0.25100138  0.48971914    -0.55000
C193        C  0.79406227  0.21355028  0.46022055     0.85100
O194        O  0.81065092  0.23434801  0.38298795    -0.56800
O195        O  0.85647950  0.25481236  0.41580568    -0.60100
In196      In  0.07636594  0.25493494  0.42979907     1.36900
C197        C  0.07091354  0.27908760  0.48820884     0.77500
O198        O  0.04361149  0.26827854  0.41003977    -0.60900
O199        O  0.04513396  0.23453173  0.42830703    -0.51800
C200        C  0.09388007  0.26734151  0.36868277     0.70200
O201        O  0.09822170  0.27738021  0.39700154    -0.46700
C202        C  0.10404848  0.22193879  0.44776792     0.74900
O203        O  0.07997620  0.28705379  0.46102328    -0.58500
O204        O  0.08483894  0.21831494  0.43522594    -0.48600
O205        O  0.06498541  0.25891528  0.48520663    -0.55000
C206        C  0.03318524  0.25027232  0.41629123     0.85100
O207        O  0.08045783  0.25115556  0.37183143    -0.56800
O208        O  0.10919996  0.24235071  0.45051204    -0.60100
In209      In  0.64637567  0.82334273  0.55659725     1.36900
C210        C  0.61998359  0.82530655  0.50050428     0.77500
O211        O  0.63370006  0.85742127  0.57020309    -0.60900
O212        O  0.66857329  0.85383798  0.56000862    -0.51800
C213        C  0.63708991  0.80993026  0.62160763     0.70200
O214        O  0.62216382  0.81308885  0.59862568    -0.46700
C215        C  0.67554452  0.79245738  0.53614480     0.74900
O216        O  0.61417778  0.81537253  0.52827738    -0.58500
O217        O  0.68045268  0.81303224  0.53808889    -0.48600
O218        O  0.63952580  0.83329634  0.50119365    -0.55000
C219        C  0.65248257  0.86687052  0.56715600     0.85100
O220        O  0.65676851  0.81378670  0.61113476    -0.56800
O221        O  0.65556847  0.78787967  0.54428141    -0.60100
In222      In  0.64462991  0.07748375  0.57060482     1.36900
C223        C  0.61916676  0.07407939  0.51306265     0.77500
O224        O  0.65882781  0.11173077  0.56031650    -0.60900
O225        O  0.67871219  0.08358314  0.54713978    -0.51800
C226        C  0.62992018  0.09275802  0.63222825     0.70200
O227        O  0.61705868  0.08962054  0.60642764    -0.46700
C228        C  0.65213406  0.03467287  0.58585661     0.74900
O229        O  0.61517833  0.08820823  0.53691916    -0.58500
O230        O  0.66766242  0.04903806  0.58513110    -0.48600
O231        O  0.63654551  0.06253164  0.51823828    -0.55000
C232        C  0.67703706  0.10464345  0.54770345     0.85100
O233        O  0.65019974  0.08795495  0.62647871    -0.56800
O234        O  0.63273532  0.04265867  0.58140135    -0.60100
In235      In  0.57132338  0.15429101  0.93940997     1.36900
C236        C  0.56895662  0.13044596  0.99865408     0.77500
O237        O  0.60671085  0.16346776  0.95218722    -0.60900
O238        O  0.58260679  0.18966551  0.95094671    -0.51800
C239        C  0.58444433  0.14171010  0.87560644     0.70200
O240        O  0.58075273  0.12778422  0.89989824    -0.46700
C241        C  0.52776332  0.16111566  0.92751900     0.74900
O242        O  0.57976317  0.12376625  0.97218234    -0.58500
O243        O  0.54076852  0.17653099  0.93762258    -0.48600
O244        O  0.56004101  0.14945759  0.99480446    -0.55000
C245        C  0.60283669  0.18415197  0.95590030     0.85100
O246        O  0.58155998  0.16192013  0.88435001    -0.56800
O247        O  0.53728440  0.14248408  0.92243430    -0.60100
In248      In  0.32062649  0.14752628  0.92428893     1.36900
C249        C  0.32448029  0.11769498  0.97583393     0.77500
O250        O  0.35597697  0.15130342  0.94182227    -0.60900
O251        O  0.34593486  0.16905720  0.89606314    -0.51800
C252        C  0.30633820  0.13088485  0.86352310     0.70200
O253        O  0.29327852  0.13897117  0.88617728    -0.46700
C254        C  0.29344218  0.18025340  0.94469757     0.74900
O255        O  0.32521885  0.11191621  0.94400838    -0.58500
O256        O  0.31218332  0.18398529  0.93054373    -0.48600
O257        O  0.32063042  0.13823428  0.98068408    -0.55000
C258        C  0.36155174  0.16396614  0.91695410     0.85100
O259        O  0.32656153  0.13005963  0.87291774    -0.56800
O260        O  0.28838936  0.15978379  0.94741899    -0.60100
In261      In  0.58104321  0.75458633  0.93262085     1.36900
C262        C  0.57549317  0.77995608  0.98954159     0.77500
O263        O  0.54710596  0.76746917  0.91693369    -0.60900
O264        O  0.55076721  0.73252295  0.92655137    -0.51800
C265        C  0.59577184  0.76553721  0.86874995     0.70200
O266        O  0.59453154  0.77955419  0.89347180    -0.46700
C267        C  0.61018511  0.72413345  0.95688180     0.74900
O268        O  0.58714815  0.78631889  0.96372629    -0.58500
O269        O  0.59057242  0.71928040  0.94710211    -0.48600
O270        O  0.56735939  0.76056428  0.98629718    -0.55000
C271        C  0.53777001  0.74853028  0.91878573     0.85100
O272        O  0.59016650  0.74586153  0.87704567    -0.56800
O273        O  0.61508067  0.74463678  0.95367359    -0.60100
In274      In  0.32803094  0.74382051  0.92704604     1.36900
C275        C  0.33564787  0.76838908  0.98388953     0.77500
O276        O  0.29394885  0.73531629  0.94787975    -0.60900
O277        O  0.31822824  0.70924046  0.94495237    -0.51800
C278        C  0.31096364  0.75508222  0.86456907     0.70200
O279        O  0.31341203  0.76905963  0.88915001    -0.46700
C280        C  0.37064220  0.73729519  0.91061034     0.74900
O281        O  0.32345939  0.77527528  0.95895780    -0.58500
O282        O  0.35735327  0.72117595  0.91611960    -0.48600
O283        O  0.34343391  0.74887529  0.98004336    -0.55000
C284        C  0.29853908  0.71493290  0.95324937     0.85100
O285        O  0.31713885  0.73542620  0.87216947    -0.56800
O286        O  0.36172140  0.75649437  0.91169645    -0.60100
In287      In  0.24884381  0.81965138  0.56066986     1.36900
C288        C  0.27490513  0.82284677  0.50430393     0.77500
O289        O  0.23801305  0.78475487  0.54644798    -0.60900
O290        O  0.21400310  0.81095610  0.54258519    -0.51800
C291        C  0.26060666  0.80542301  0.62432825     0.70200
O292        O  0.27413351  0.80572034  0.59894540    -0.46700
C293        C  0.24279944  0.86327438  0.57288591     0.74900
O294        O  0.28134303  0.81365934  0.53241009    -0.58500
O295        O  0.22681032  0.84944321  0.57213084    -0.48600
O296        O  0.25468521  0.82914284  0.50444162    -0.55000
C297        C  0.21817724  0.79033826  0.53885756     0.85100
O298        O  0.24114232  0.81225096  0.61706940    -0.56800
O299        O  0.26186492  0.85459109  0.56843699    -0.60100
In300      In  0.24379135  0.07547337  0.55574408     1.36900
C301        C  0.26787279  0.07198459  0.49738067     0.77500
O302        O  0.25812464  0.04202342  0.56935538    -0.60900
O303        O  0.22291384  0.04402782  0.56054954    -0.51800
C304        C  0.25706019  0.08853210  0.61932720     0.70200
O305        O  0.27043339  0.08637004  0.59394821    -0.46700
C306        C  0.21312257  0.10549128  0.53595937     0.74900
O307        O  0.27308302  0.08516518  0.52200086    -0.58500
O308        O  0.20805393  0.08580627  0.54534292    -0.48600
O309        O  0.24973337  0.06159395  0.50213565    -0.55000
C310        C  0.23972970  0.03172730  0.56709651     0.85100
O311        O  0.23686730  0.08458459  0.61171755    -0.56800
O312        O  0.23382243  0.10973566  0.53703766    -0.60100
C313        C  0.23958893  0.88778779  0.57719933     0.01300
C314        C  0.22264077  0.89908480  0.55806052     0.04100
C315        C  0.22147803  0.92268978  0.55867811    -0.11900
C316        C  0.23690695  0.93507220  0.57880570     0.23400
C317        C  0.25282453  0.92385317  0.59971432    -0.12500
C318        C  0.25438194  0.90029023  0.59861429     0.04800
C319        C  0.23740887  0.95989323  0.57608313     0.27300
C320        C  0.25186219  0.97012026  0.55167462    -0.13200
C321        C  0.25236822  0.99362613  0.54855594     0.05300
C322        C  0.23850154  0.00704757  0.57009618    -0.09200
C323        C  0.22401679  0.99677375  0.59452743     0.06200
C324        C  0.22347933  0.97319669  0.59747752    -0.13500
Br325      Br  0.27257188  0.94099427  0.62960435    -0.05600
Br326      Br  0.20187483  0.88265536  0.52885300     0.00000
Br327      Br  0.27138465  0.00725138  0.51344784     0.00500
Br328      Br  0.20392478  0.95890724  0.63097640    -0.03900
Br329      Br  0.27658882  0.88537624  0.62715406     0.00600
Br330      Br  0.19923390  0.93830675  0.53103863    -0.03200
Br331      Br  0.27092519  0.95176432  0.52239448    -0.04100
Br332      Br  0.20573560  0.01489066  0.62513333    -0.00100
C333        C  0.26696001  0.79778124  0.65982868     0.01300
C334        C  0.25468741  0.78052908  0.67634632     0.04100
C335        C  0.26055051  0.77345120  0.71040830    -0.11900
C336        C  0.27872297  0.78356250  0.72804970     0.23400
C337        C  0.29068523  0.80110390  0.71177835    -0.12500
C338        C  0.28493118  0.80808751  0.67768049     0.04800
C339        C  0.28597476  0.77521335  0.76305971     0.27300
C340        C  0.27528206  0.78280170  0.79378012    -0.13200
C341        C  0.28282402  0.77543472  0.82689538     0.05300
C342        C  0.30182328  0.76127491  0.82958915    -0.09200
C343        C  0.31213643  0.75323371  0.79862509     0.06200
C344        C  0.30401650  0.75997082  0.76554196    -0.13500
Br345      Br  0.31478068  0.81579048  0.73659745    -0.05600
Br346      Br  0.23056792  0.76579410  0.65155338     0.00000
Br347      Br  0.26589189  0.78329593  0.86823029     0.00500
Br348      Br  0.31761764  0.74843208  0.72326752    -0.03900
Br349      Br  0.30117880  0.83240068  0.65608311     0.00600
Br350      Br  0.24377714  0.74986773  0.73298027    -0.03200
Br351      Br  0.25039832  0.80346924  0.79032791    -0.04100
Br352      Br  0.33798993  0.73368267  0.80095410    -0.00100
C353        C  0.51341064  0.74546008  0.91342854     0.01300
C354        C  0.50544139  0.72898188  0.88996195     0.04100
C355        C  0.48219025  0.72540247  0.88618677    -0.11900
C356        C  0.46685473  0.73841828  0.90563602     0.23400
C357        C  0.47480075  0.75529085  0.92837923    -0.12500
C358        C  0.49800263  0.75874818  0.93244074     0.04800
C359        C  0.44228983  0.73470726  0.90253013     0.27300
C360        C  0.42972481  0.74708469  0.87787815    -0.13200
C361        C  0.40613496  0.74690252  0.87922287     0.05300
C362        C  0.39500647  0.73434345  0.90528968    -0.09200
C363        C  0.40758490  0.72097960  0.92881083     0.06200
C364        C  0.43118823  0.72098778  0.92711488    -0.13500
Br365      Br  0.45371662  0.77371302  0.95398725    -0.05600
Br366      Br  0.52633976  0.71220312  0.86151206     0.00000
Br367      Br  0.38908225  0.76425585  0.84567340     0.00500
Br368      Br  0.44845554  0.70317085  0.95972897    -0.03900
Br369      Br  0.50851273  0.78102663  0.96543053     0.00600
Br370      Br  0.47126739  0.70287993  0.85418426    -0.03200
Br371      Br  0.44492374  0.76517102  0.84336555    -0.04100
Br372      Br  0.39282599  0.70474210  0.96611714    -0.00100
C373        C  0.29874628  0.12402902  0.82822213     0.01300
C374        C  0.30724711  0.10431709  0.81237180     0.04100
C375        C  0.30098409  0.09880834  0.77784671    -0.11900
C376        C  0.28542975  0.11233514  0.75969728     0.23400
C377        C  0.27647928  0.13163312  0.77574908    -0.12500
C378        C  0.28361270  0.13787791  0.80946622     0.04800
C379        C  0.27832797  0.10620646  0.72372620     0.27300
C380        C  0.28852759  0.11643944  0.69456557    -0.13200
C381        C  0.28140801  0.11100141  0.66039370     0.05300
C382        C  0.26442137  0.09473293  0.65523800    -0.09200
C383        C  0.25457847  0.08420438  0.68475627     0.06200
C384        C  0.26124412  0.09026845  0.71882707    -0.13500
Br385      Br  0.25431848  0.14945819  0.75138120    -0.05600
Br386      Br  0.32655347  0.08414445  0.83820509     0.00000
Br387      Br  0.29428383  0.12691435  0.62117040     0.00500
Br388      Br  0.24696995  0.07684724  0.75916713    -0.03900
Br389      Br  0.27386412  0.16641473  0.82830216     0.00600
Br390      Br  0.31373232  0.07281431  0.75502627    -0.03200
Br391      Br  0.31228060  0.13797696  0.70183235    -0.04100
Br392      Br  0.23296844  0.06035376  0.67925529    -0.00100
C393        C  0.50325258  0.16440432  0.92288980     0.01300
C394        C  0.48803248  0.14813666  0.93572083     0.04100
C395        C  0.46477517  0.15135229  0.93166049    -0.11900
C396        C  0.45652706  0.17098456  0.91552381     0.23400
C397        C  0.47153392  0.18738770  0.90326433    -0.12500
C398        C  0.49486137  0.18398045  0.90639978     0.04800
C399        C  0.43194650  0.17408210  0.91184240     0.27300
C400        C  0.42066380  0.16468646  0.88286160    -0.13200
C401        C  0.39715417  0.16273315  0.88332196     0.05300
C402        C  0.38494201  0.17092174  0.91221848    -0.09200
C403        C  0.39604756  0.18221205  0.93957649     0.06200
C404        C  0.41957390  0.18366978  0.93953374    -0.13500
Br405      Br  0.45988913  0.21459040  0.88262925    -0.05600
Br406      Br  0.49862440  0.12199767  0.96092529     0.00000
Br407      Br  0.38202822  0.14607607  0.84685918     0.00500
Br408      Br  0.43494889  0.19731214  0.97855909    -0.03900
Br409      Br  0.51514533  0.20565303  0.88627170     0.00600
Br410      Br  0.44393683  0.12903799  0.94879212    -0.03200
Br411      Br  0.43757807  0.15307454  0.84377732    -0.04100
Br412      Br  0.37897357  0.19464504  0.97791574    -0.00100
C413        C  0.62206266  0.10127551  0.66659606     0.01300
C414        C  0.60360164  0.09120607  0.68365863     0.04100
C415        C  0.59754659  0.09809679  0.71770984    -0.11900
C416        C  0.60978962  0.11512287  0.73477047     0.23400
C417        C  0.62777543  0.12563196  0.71740013    -0.12500
C418        C  0.63367424  0.11898952  0.68320981     0.04800
C419        C  0.60360442  0.12212324  0.77089607     0.27300
C420        C  0.58827047  0.13981977  0.77602176    -0.13200
C421        C  0.58225800  0.14643587  0.81017931     0.05300
C422        C  0.59126069  0.13502105  0.83961732    -0.09200
C423        C  0.60681663  0.11733543  0.83430599     0.06200
C424        C  0.61309407  0.11110860  0.80003605    -0.13500
Br425      Br  0.64453096  0.14890096  0.74088556    -0.05600
Br426      Br  0.58697324  0.06744055  0.66115761     0.00000
Br427      Br  0.56094713  0.17069331  0.81589507     0.00500
Br428      Br  0.63510021  0.08773850  0.79267252    -0.03900
Br429      Br  0.65663516  0.13531523  0.65826822     0.00600
Br430      Br  0.57276514  0.08393612  0.74155910    -0.03200
Br431      Br  0.57541736  0.15490897  0.73592199    -0.04100
Br432      Br  0.62064271  0.10221854  0.87362488    -0.00100
C433        C  0.63191280  0.80235908  0.65784133     0.01300
C434        C  0.64395540  0.81112926  0.68681855     0.04100
C435        C  0.63819931  0.80471941  0.72118326    -0.11900
C436        C  0.62092740  0.78907990  0.72688929     0.23400
C437        C  0.60951421  0.77960295  0.69820346    -0.12500
C438        C  0.61474935  0.78637014  0.66379796     0.04800
C439        C  0.61449492  0.78292857  0.76321830     0.27300
C440        C  0.62536429  0.76503645  0.78041049    -0.13200
C441        C  0.61932366  0.75933980  0.81496548     0.05300
C442        C  0.60255320  0.77172716  0.83266704    -0.09200
C443        C  0.59166050  0.78964067  0.81526148     0.06200
C444        C  0.59761987  0.79517923  0.78062317    -0.13500
Br445      Br  0.58678745  0.75713347  0.70636983    -0.05600
Br446      Br  0.66782692  0.83264016  0.68037770     0.00000
Br447      Br  0.63469324  0.73503176  0.83818894     0.00500
Br448      Br  0.58260914  0.81948416  0.75662785    -0.03900
Br449      Br  0.59884338  0.77271656  0.62513713     0.00600
Br450      Br  0.65364575  0.81759712  0.76090440    -0.03200
Br451      Br  0.64865495  0.74851513  0.75641845    -0.04100
Br452      Br  0.56759604  0.80583657  0.83789803    -0.00100
C453        C  0.65615697  0.01021891  0.58886519     0.01300
C454        C  0.64154456  0.99680003  0.60908940     0.04100
C455        C  0.64297599  0.97324301  0.60733657    -0.11900
C456        C  0.65851777  0.96295811  0.58460374     0.23400
C457        C  0.67340001  0.97625424  0.56489390    -0.12500
C458        C  0.67268794  0.99981594  0.56771981     0.04800
C459        C  0.65783848  0.93829111  0.57926406     0.27300
C460        C  0.67300644  0.92405866  0.59701302    -0.13200
C461        C  0.67133957  0.90059620  0.59316937     0.05300
C462        C  0.65499878  0.89139308  0.57062198    -0.09200
C463        C  0.64047212  0.90572439  0.55173182     0.06200
C464        C  0.64161461  0.92907396  0.55657354    -0.13500
Br465      Br  0.69340320  0.96215563  0.53169030    -0.05600
Br466      Br  0.61938618  0.01054682  0.63918565     0.00000
Br467      Br  0.69044781  0.88111875  0.62054522     0.00500
Br468      Br  0.62074630  0.94852090  0.53236309    -0.03900
Br469      Br  0.69333245  0.01752206  0.54014674     0.00600
Br470      Br  0.62276315  0.95490436  0.63455430    -0.03200
Br471      Br  0.69587310  0.93671596  0.62684096    -0.04100
Br472      Br  0.61967010  0.89354190  0.51777415    -0.00100
C473        C  0.19629469  0.12224483  0.52419735     0.01300
C474        C  0.17954489  0.11613962  0.49973497     0.04100
C475        C  0.16429408  0.13235511  0.48723054    -0.11900
C476        C  0.16537288  0.15461220  0.49953771     0.23400
C477        C  0.18164882  0.16065991  0.52457396    -0.12500
C478        C  0.19726673  0.14461946  0.53658630     0.04800
C479        C  0.14947274  0.17169255  0.48580916     0.27300
C480        C  0.15602086  0.18597816  0.45819216    -0.13200
C481        C  0.14098303  0.20222388  0.44524611     0.05300
C482        C  0.11918998  0.20385508  0.45934326    -0.09200
C483        C  0.11238089  0.18908374  0.48617259     0.06200
C484        C  0.12770388  0.17339987  0.49997430    -0.13500
Br485      Br  0.18222087  0.19095469  0.54262034    -0.05600
Br486      Br  0.17802773  0.08590822  0.48160075     0.00000
Br487      Br  0.14994992  0.22172253  0.40732695     0.00500
Br488      Br  0.11929413  0.15482949  0.53924217    -0.03900
Br489      Br  0.21937876  0.15334212  0.57103769     0.00600
Br490      Br  0.14205262  0.12430027  0.45262257    -0.03200
Br491      Br  0.18567578  0.18332929  0.43834061    -0.04100
Br492      Br  0.08233741  0.19086749  0.50495381    -0.00100
C493        C  0.69472722  0.11983054  0.53420632     0.01300
C494        C  0.71770481  0.11534174  0.54072751     0.04100
C495        C  0.73426426  0.13028184  0.52853092    -0.11900
C496        C  0.72804269  0.14964087  0.50965778     0.23400
C497        C  0.70525535  0.15379955  0.50222410    -0.12500
C498        C  0.68863342  0.13897545  0.51440322     0.04800
C499        C  0.74548183  0.16563403  0.49746643     0.27300
C500        C  0.75025033  0.18501446  0.51723688    -0.13200
C501        C  0.76612421  0.20066979  0.50507153     0.05300
C502        C  0.77770653  0.19677443  0.47332166    -0.09200
C503        C  0.77350768  0.17682318  0.45425000     0.06200
C504        C  0.75727250  0.16144010  0.46617811    -0.13500
Br505      Br  0.69691292  0.17966470  0.47460710    -0.05600
Br506      Br  0.72683615  0.08927024  0.56734279     0.00000
Br507      Br  0.77274136  0.22682968  0.53314039     0.00500
Br508      Br  0.75097186  0.13449909  0.43976926    -0.03900
Br509      Br  0.65764266  0.14433024  0.50173335     0.00600
Br510      Br  0.76563718  0.12440253  0.53753101    -0.03200
Br511      Br  0.73532300  0.18970506  0.56152914    -0.04100
Br512      Br  0.78917042  0.17068586  0.41100427    -0.00100
C513        C  0.89057386  0.23365212  0.41584995     0.01300
C514        C  0.90054666  0.24269304  0.38542967     0.04100
C515        C  0.92400109  0.24450056  0.38313416    -0.11900
C516        C  0.93756063  0.23694873  0.41096439     0.23400
C517        C  0.92775361  0.22662972  0.44041938    -0.12500
C518        C  0.90427195  0.22478018  0.44278662     0.04800
C519        C  0.96204955  0.24092019  0.41010779     0.27300
C520        C  0.97657055  0.22450688  0.39631473    -0.13200
C521        C  0.99988638  0.22807139  0.39664129     0.05300
C522        C  0.00874131  0.24789805  0.41148965    -0.09200
C523        C  0.99406991  0.26464576  0.42434054     0.06200
C524        C  0.97075522  0.26113761  0.42352580    -0.13500
Br525      Br  0.94655558  0.21631088  0.47844678    -0.05600
Br526      Br  0.88211219  0.25221023  0.34648540     0.00000
Br527      Br  0.01953382  0.20613069  0.37540102     0.00500
Br528      Br  0.95058817  0.28370283  0.44179075    -0.03900
Br529      Br  0.89116373  0.21148600  0.48416419     0.00600
Br530      Br  0.93762566  0.25835640  0.34269322    -0.03200
Br531      Br  0.96439481  0.19698283  0.37766396    -0.04100
Br532      Br  0.00565930  0.29181357  0.44530704    -0.00100
C533        C  0.62068486  0.20037505  0.96565780     0.01300
C534        C  0.62210204  0.22164433  0.94918808     0.04100
C535        C  0.63959256  0.23654107  0.95807120    -0.11900
C536        C  0.65518746  0.23070002  0.98431727     0.23400
C537        C  0.65404524  0.20942598  0.00030215    -0.12500
C538        C  0.63685677  0.19434072  0.99118201     0.04800
C539        C  0.67179160  0.24741302  0.99720473     0.27300
C540        C  0.69383054  0.24763473  0.98398387    -0.13200
C541        C  0.71000463  0.26216902  0.99855886     0.05300
C542        C  0.70412517  0.27677899  0.02641945    -0.09200
C543        C  0.68171476  0.27698958  0.03877542     0.06200
C544        C  0.66569898  0.26231282  0.02423642    -0.13500
Br545      Br  0.67618343  0.20103510  0.03491864    -0.05600
Br546      Br  0.60050680  0.23052609  0.91400004     0.00000
Br547      Br  0.73986387  0.26256538  0.97880873     0.00500
Br548      Br  0.63526779  0.26222228  0.04167584    -0.03900
Br549      Br  0.63474569  0.16609032  0.01596023     0.00600
Br550      Br  0.64274299  0.26478512  0.93376464    -0.03200
Br551      Br  0.70163337  0.22802020  0.94561331    -0.04100
Br552      Br  0.67277040  0.29644141  0.07683759    -0.00100
C553        C  0.79978830  0.26004676  0.33676295     0.01300
C554        C  0.80689063  0.24709713  0.30756300     0.04100
C555        C  0.80048367  0.25334475  0.27331660    -0.11900
C556        C  0.78758033  0.27284709  0.26773308     0.23400
C557        C  0.78042905  0.28572809  0.29657202    -0.12500
C558        C  0.78594035  0.27905560  0.33097360     0.04800
C559        C  0.78154354  0.27987923  0.23147781     0.27300
C560        C  0.79533597  0.29508042  0.21315503    -0.13200
C561        C  0.78936885  0.30217292  0.17916396     0.05300
C562        C  0.76973758  0.29380686  0.16307946    -0.09200
C563        C  0.75608948  0.27838829  0.18127311     0.06200
C564        C  0.76183831  0.27166447  0.21555164    -0.13500
Br565      Br  0.76330442  0.31281244  0.28860478    -0.05600
Br566      Br  0.82634436  0.22133568  0.31342655     0.00000
Br567      Br  0.80733400  0.32455285  0.15568468     0.00500
Br568      Br  0.74248642  0.25160316  0.24118872    -0.03900
Br569      Br  0.77298909  0.29527979  0.36986134     0.00600
Br570      Br  0.80963920  0.23541484  0.23363292    -0.03200
Br571      Br  0.82208730  0.30665255  0.23520489    -0.04100
Br572      Br  0.72998024  0.26579190  0.15873760    -0.00100
C573        C  0.70080543  0.62186816  0.03245968     0.01300
C574        C  0.70080441  0.64327814  0.04829167     0.04100
C575        C  0.68582356  0.65998764  0.03656755    -0.11900
C576        C  0.67082382  0.65541921  0.00888456     0.23400
C577        C  0.67093793  0.63410173  0.99283593    -0.12500
C578        C  0.68573070  0.61726999  0.00481992     0.04800
C579        C  0.65533310  0.67323077  0.99603444     0.27300
C580        C  0.63327198  0.67468926  0.00906145    -0.13200
C581        C  0.61858611  0.69147332  0.99655445     0.05300
C582        C  0.62598151  0.70706732  0.97108189    -0.09200
C583        C  0.64834877  0.70589769  0.95885249     0.06200
C584        C  0.66278501  0.68875906  0.97081095    -0.13500
Br585      Br  0.65119569  0.62831752  0.95373841    -0.05600
Br586      Br  0.72053378  0.64938405  0.08735296     0.00000
Br587      Br  0.58878506  0.69380084  0.01613404     0.00500
Br588      Br  0.69273767  0.68594826  0.95206679    -0.03900
Br589      Br  0.68591566  0.58823119  0.98236687     0.00600
Br590      Br  0.68587475  0.68924804  0.05826443    -0.03200
Br591      Br  0.62331179  0.65356675  0.04411006    -0.04100
Br592      Br  0.65935557  0.72726941  0.92506224    -0.00100
C593        C  0.73255963  0.50632205  0.08963722     0.01300
C594        C  0.74161146  0.49594494  0.11980731     0.04100
C595        C  0.74257385  0.47241738  0.12207784    -0.11900
C596        C  0.73408629  0.45919884  0.09457898     0.23400
C597        C  0.72342372  0.46943072  0.06573762    -0.12500
C598        C  0.72281927  0.49299081  0.06301613     0.04800
C599        C  0.73774225  0.43462007  0.09467548     0.27300
C600        C  0.75813898  0.42584023  0.08204181    -0.13200
C601        C  0.76128769  0.40248601  0.07991305     0.05300
C602        C  0.74376448  0.38776581  0.08984503    -0.09200
C603        C  0.72363597  0.39669824  0.10372388     0.06200
C604        C  0.72069660  0.42009807  0.10618277    -0.13500
Br605      Br  0.71062483  0.45093902  0.02925196    -0.05600
Br606      Br  0.75261199  0.51389488  0.15829097     0.00000
Br607      Br  0.78933262  0.39116721  0.06140547     0.00500
Br608      Br  0.69321160  0.43253111  0.12471295    -0.03900
Br609      Br  0.71055181  0.50655884  0.02117069     0.00600
Br610      Br  0.75630437  0.45814139  0.16215029    -0.03200
Br611      Br  0.78148675  0.44599009  0.06639029    -0.04100
Br612      Br  0.70030578  0.37710876  0.12074223    -0.00100
C613        C  0.20458854  0.28072512  0.02697499     0.01300
C614        C  0.21663239  0.28561769  0.99596188     0.04100
C615        C  0.23195431  0.26986157  0.98239267    -0.11900
C616        C  0.23552530  0.24938532  0.99991485     0.23400
C617        C  0.22432122  0.24486485  0.03159729    -0.12500
C618        C  0.20894219  0.26052687  0.04522045     0.04800
C619        C  0.25062157  0.23226433  0.98456337     0.27300
C620        C  0.24177604  0.21573403  0.96212333    -0.13200
C621        C  0.25573446  0.19860287  0.94912326     0.05300
C622        C  0.27877338  0.19836898  0.95778320    -0.09200
C623        C  0.28769443  0.21529124  0.97966236     0.06200
C624        C  0.27361696  0.23223543  0.99294274    -0.13500
Br625      Br  0.22998490  0.21700015  0.05599253    -0.05600
Br626      Br  0.21165449  0.31333775  0.97085581     0.00000
Br627      Br  0.24322746  0.17585545  0.91883010     0.00500
Br628      Br  0.28569168  0.25549869  0.02266824    -0.03900
Br629      Br  0.19485703  0.25471274  0.08988962     0.00600
Br630      Br  0.24772098  0.27582705  0.93918948    -0.03200
Br631      Br  0.21055066  0.21700590  0.94874438    -0.04100
Br632      Br  0.31881999  0.21452328  0.99370676    -0.00100
C633        C  0.13740527  0.30357796  0.16165524     0.01300
C634        C  0.15411209  0.30257386  0.18812733     0.04100
C635        C  0.14816374  0.29747740  0.22288723    -0.11900
C636        C  0.12576679  0.29244283  0.23125122     0.23400
C637        C  0.10915413  0.29292989  0.20502731    -0.12500
C638        C  0.11480334  0.29880431  0.17041515     0.04800
C639        C  0.11952860  0.28623739  0.26755895     0.27300
C640        C  0.11909400  0.26348381  0.27742118    -0.13200
C641        C  0.11093841  0.25727585  0.31062324     0.05300
C642        C  0.10355242  0.27394576  0.33444427    -0.09200
C643        C  0.10485226  0.29686231  0.32486338     0.06200
C644        C  0.11271190  0.30292920  0.29139517    -0.13500
Br645      Br  0.07850857  0.28568393  0.21703599    -0.05600
Br646      Br  0.18552046  0.30689302  0.17722877     0.00000
Br647      Br  0.11046932  0.22584913  0.32325341     0.00500
Br648      Br  0.11354217  0.33408780  0.27745461    -0.03900
Br649      Br  0.09101561  0.30142022  0.13615149     0.00600
Br650      Br  0.17065755  0.29749365  0.25934244    -0.03200
Br651      Br  0.12948977  0.24088895  0.24490690    -0.04100
Br652      Br  0.09444357  0.32009079  0.35624809    -0.00100
C653        C  0.20208151  0.62213998  0.03658245     0.01300
C654        C  0.20167912  0.64459283  0.04836938     0.04100
C655        C  0.21749819  0.66008852  0.03559992    -0.11900
C656        C  0.23380905  0.65312227  0.01118581     0.23400
C657        C  0.23429902  0.63067128  0.99957199    -0.12500
C658        C  0.21844649  0.61519116  0.01222728     0.04800
C659        C  0.25020926  0.66944622  0.99698500     0.27300
C660        C  0.24483204  0.68206152  0.96689050    -0.13200
C661        C  0.26071725  0.69684983  0.95243325     0.05300
C662        C  0.28207184  0.69906133  0.96808274    -0.09200
C663        C  0.28746173  0.68632029  0.99817955     0.06200
C664        C  0.27148284  0.67163109  0.01269049    -0.13500
Br665      Br  0.25623819  0.62149787  0.96521866    -0.05600
Br666      Br  0.17964969  0.65401471  0.08244797     0.00000
Br667      Br  0.25365080  0.71297069  0.90987249     0.00500
Br668      Br  0.27854569  0.65437949  0.05412846    -0.03900
Br669      Br  0.21811358  0.58492642  0.99419928     0.00600
Br670      Br  0.21655952  0.69100869  0.05068835    -0.03200
Br671      Br  0.21575300  0.67865009  0.94525265    -0.04100
Br672      Br  0.31642240  0.68941306  0.02033755    -0.00100
C673        C  0.16059367  0.51021319  0.07607437     0.01300
C674        C  0.14718922  0.49588997  0.05532355     0.04100
C675        C  0.14965256  0.47245895  0.05799835    -0.11900
C676        C  0.16572823  0.46321545  0.08100397     0.23400
C677        C  0.17915157  0.47744496  0.10169956    -0.12500
C678        C  0.17650538  0.50092405  0.09939777     0.04800
C679        C  0.16785285  0.43845484  0.08371562     0.27300
C680        C  0.15461566  0.42663085  0.10805643    -0.13200
C681        C  0.15338058  0.40307402  0.10644805     0.05300
C682        C  0.16550542  0.39130273  0.08052416    -0.09200
C683        C  0.18002419  0.40305621  0.05778511     0.06200
C684        C  0.18129449  0.42660771  0.05961209    -0.13500
Br685      Br  0.20075766  0.46460766  0.13365234    -0.05600
Br686      Br  0.12596561  0.50825289  0.02214417     0.00000
Br687      Br  0.13524552  0.38700554  0.14005209     0.00500
Br688      Br  0.20093140  0.44278673  0.02842151    -0.03900
Br689      Br  0.19361087  0.52025906  0.12988371     0.00600
Br690      Br  0.13073993  0.45285304  0.03050944    -0.03200
Br691      Br  0.13783163  0.44288133  0.14307275    -0.04100
Br692      Br  0.19667695  0.38728550  0.02189883    -0.00100
C693        C  0.12203277  0.69347096  0.46555531     0.01300
C694        C  0.13834265  0.68746817  0.49083344     0.04100
C695        C  0.15376980  0.70358683  0.50290657    -0.11900
C696        C  0.15314406  0.72564533  0.48956609     0.23400
C697        C  0.13732880  0.73150735  0.46371362    -0.12500
C698        C  0.12181967  0.71549323  0.45167082     0.04800
C699        C  0.16957664  0.74253590  0.50198133     0.27300
C700        C  0.16385430  0.75750390  0.52914423    -0.13200
C701        C  0.17964665  0.77332579  0.54113373     0.05300
C702        C  0.20132005  0.77404426  0.52613817    -0.09200
C703        C  0.20684985  0.75914284  0.49866070     0.06200
C704        C  0.19091184  0.74366192  0.48634242    -0.13500
Br705      Br  0.13717553  0.76154028  0.44462492    -0.05600
Br706      Br  0.13923295  0.65752184  0.51027314     0.00000
Br707      Br  0.17177904  0.79316182  0.57924111     0.00500
Br708      Br  0.19796244  0.72431935  0.44724879    -0.03900
Br709      Br  0.10119769  0.72362260  0.41464017     0.00600
Br710      Br  0.17570274  0.69559555  0.53807968    -0.03200
Br711      Br  0.13426733  0.75627468  0.54964340    -0.04100
Br712      Br  0.23592906  0.76035254  0.47662186    -0.00100
C713        C  0.13107388  0.60438678  0.16235078     0.01300
C714        C  0.14378658  0.59967371  0.19293913     0.04100
C715        C  0.13542250  0.60556161  0.22617030    -0.11900
C716        C  0.11504897  0.61734710  0.22909072     0.23400
C717        C  0.10327549  0.62380049  0.19877801    -0.12500
C718        C  0.11101127  0.61714821  0.16547062     0.04800
C719        C  0.10627424  0.62330027  0.26422928     0.27300
C720        C  0.09152504  0.60863854  0.28170061    -0.13200
C721        C  0.08420114  0.61367422  0.31589079     0.05300
C722        C  0.09187169  0.63330290  0.33285952    -0.09200
C723        C  0.10618154  0.64827231  0.31481146     0.06200
C724        C  0.11315452  0.64334963  0.28044131    -0.13500
Br725      Br  0.07648363  0.64187186  0.20336971    -0.05600
Br726      Br  0.17359583  0.58693829  0.18990455     0.00000
Br727      Br  0.06270719  0.59426129  0.33847043     0.00500
Br728      Br  0.13212498  0.66399639  0.25514332    -0.03900
Br729      Br  0.09335991  0.62539465  0.12493209     0.00600
Br730      Br  0.15179778  0.59753429  0.26809919    -0.03200
Br731      Br  0.08128658  0.58177760  0.25835964    -0.04100
Br732      Br  0.11736629  0.67497800  0.33756538    -0.00100
C733        C  0.77150337  0.69358591  0.46920731     0.01300
C734        C  0.76648511  0.71272619  0.44875373     0.04100
C735        C  0.75092672  0.72865955  0.46095788    -0.11900
C736        C  0.73990783  0.72528159  0.49313218     0.23400
C737        C  0.74429268  0.70585994  0.51305664    -0.12500
C738        C  0.76037225  0.69022268  0.50149053     0.04800
C739        C  0.72326193  0.74198843  0.50539103     0.27300
C740        C  0.72996775  0.75968666  0.52747674    -0.13200
C741        C  0.71431639  0.77608010  0.53789358     0.05300
C742        C  0.69193386  0.77504675  0.52561249    -0.09200
C743        C  0.68527834  0.75715619  0.50354413     0.06200
C744        C  0.70092193  0.74063003  0.49367298    -0.13500
Br745      Br  0.72790860  0.70055599  0.55586916    -0.05600
Br746      Br  0.77979923  0.71673107  0.40308898     0.00000
Br747      Br  0.72353680  0.79915112  0.57051456     0.00500
Br748      Br  0.69205107  0.71621456  0.46337067    -0.03900
Br749      Br  0.76793165  0.66496968  0.53113765     0.00600
Br750      Br  0.74427466  0.75505876  0.43339832    -0.03200
Br751      Br  0.76074685  0.76155545  0.54304075    -0.04100
Br752      Br  0.65514279  0.75562426  0.48497549    -0.00100
C753        C  0.79284142  0.62704902  0.34409840     0.01300
C754        C  0.79962821  0.60645748  0.32910948     0.04100
C755        C  0.79148711  0.60004324  0.29590480    -0.11900
C756        C  0.77730527  0.61456269  0.27685150     0.23400
C757        C  0.77040257  0.63506060  0.29182353    -0.12500
C758        C  0.77791173  0.64116182  0.32551586     0.04800
C759        C  0.77068816  0.60875113  0.24034208     0.27300
C760        C  0.78372578  0.61641595  0.21201711    -0.13200
C761        C  0.77809192  0.61036402  0.17739424     0.05300
C762        C  0.75942335  0.59627298  0.17083711    -0.09200
C763        C  0.74621805  0.58882095  0.19948338     0.06200
C764        C  0.75187412  0.59509410  0.23401933    -0.13500
Br765      Br  0.75099119  0.65494308  0.26571478    -0.05600
Br766      Br  0.82179196  0.58801844  0.35229422     0.00000
Br767      Br  0.79564383  0.62238934  0.13923250     0.00500
Br768      Br  0.73428353  0.58451837  0.27313756    -0.03900
Br769      Br  0.76728286  0.66869461  0.34634462     0.00600
Br770      Br  0.80007879  0.57154517  0.27588902    -0.03200
Br771      Br  0.80963371  0.63499516  0.22107655    -0.04100
Br772      Br  0.72104496  0.56889789  0.19237108    -0.00100
C773        C  0.00598332  0.66160942  0.42105598     0.01300
C774        C  0.99395242  0.65170291  0.39321766     0.04100
C775        C  0.97046143  0.65349692  0.39204588    -0.11900
C776        C  0.95898542  0.66536257  0.41844570     0.23400
C777        C  0.97103779  0.67638607  0.44509712    -0.12500
C778        C  0.99452508  0.67434968  0.44666209     0.04800
C779        C  0.93430849  0.66348348  0.42093112     0.27300
C780        C  0.92020331  0.67971013  0.40554854    -0.13200
C781        C  0.89672834  0.67726653  0.40751206     0.05300
C782        C  0.88741127  0.65841380  0.42458469    -0.09200
C783        C  0.90169767  0.64236085  0.44042354     0.06200
C784        C  0.92506576  0.64497212  0.43866325    -0.13500
Br785      Br  0.95510500  0.69306587  0.48064418    -0.05600
Br786      Br  0.00955497  0.63554634  0.35668169     0.00000
Br787      Br  0.87751401  0.69934916  0.38573894     0.00500
Br788      Br  0.94467049  0.62334060  0.46100073    -0.03900
Br789      Br  0.01046975  0.68697492  0.48611185     0.00600
Br790      Br  0.95374860  0.63867840  0.35540944    -0.03200
Br791      Br  0.93323469  0.70515610  0.38187458    -0.04100
Br792      Br  0.88954903  0.61733314  0.46646711    -0.00100
C793        C  0.54196835  0.87096721  0.32596503     0.01300
C794        C  0.54123500  0.84760317  0.33248351     0.04100
C795        C  0.55336916  0.83835935  0.36067575    -0.11900
C796        C  0.56668856  0.85228673  0.38195299     0.23400
C797        C  0.56802931  0.87547285  0.37491261    -0.12500
C798        C  0.55555064  0.88487131  0.34717920     0.04800
C799        C  0.57927110  0.84266997  0.41196330     0.27300
C800        C  0.56994145  0.84331299  0.44584737    -0.13200
C801        C  0.58284716  0.83659545  0.47495308     0.05300
C802        C  0.60497372  0.82859442  0.47003211    -0.09200
C803        C  0.61354972  0.82627102  0.43571375     0.06200
C804        C  0.60090328  0.83375436  0.40682445    -0.13500
Br805      Br  0.58688349  0.89429669  0.40375235    -0.05600
Br806      Br  0.52450423  0.82791980  0.30190630     0.00000
Br807      Br  0.57062457  0.84021943  0.52148795     0.00500
Br808      Br  0.61344037  0.83268976  0.36022060    -0.03900
Br809      Br  0.55611066  0.91697261  0.33998446     0.00600
Br810      Br  0.55171354  0.80661374  0.37055470    -0.03200
Br811      Br  0.53968876  0.85421681  0.45224466    -0.04100
Br812      Br  0.64232466  0.81216189  0.42801827    -0.00100
C813        C  0.52942011  0.85803066  0.16547335     0.01300
C814        C  0.55294613  0.85669384  0.16104936     0.04100
C815        C  0.56215033  0.84386312  0.13348205    -0.11900
C816        C  0.54796814  0.83204494  0.11037850     0.23400
C817        C  0.52450882  0.83306013  0.11509474    -0.12500
C818        C  0.51524730  0.84586809  0.14261177     0.04800
C819        C  0.55743917  0.81934520  0.08007487     0.27300
C820        C  0.55766632  0.82928468  0.04653281    -0.13200
C821        C  0.56431088  0.81671359  0.01699870     0.05300
C822        C  0.57098009  0.79405244  0.02085805    -0.09200
C823        C  0.57161207  0.78437863  0.05471039     0.06200
C824        C  0.56487140  0.79698921  0.08417983    -0.13500
Br825      Br  0.50502010  0.81738638  0.08288861    -0.05600
Br826      Br  0.57278436  0.87137748  0.19388673     0.00000
Br827      Br  0.56235089  0.83023901  0.97108148     0.00500
Br828      Br  0.56536697  0.78345548  0.13012574    -0.03900
Br829      Br  0.48301859  0.84740456  0.14765385     0.00600
Br830      Br  0.59421864  0.84282051  0.12684280    -0.03200
Br831      Br  0.54801402  0.86005183  0.04106759    -0.04100
Br832      Br  0.58208525  0.75388192  0.06102581    -0.00100
C833        C  0.53664066  0.03421675  0.33858026     0.01300
C834        C  0.54101726  0.05740505  0.34217188     0.04100
C835        C  0.55371503  0.06532502  0.37078925    -0.11900
C836        C  0.56223699  0.05011959  0.39580075     0.23400
C837        C  0.55756347  0.02701676  0.39258618    -0.12500
C838        C  0.54502771  0.01903015  0.36385710     0.04800
C839        C  0.57662872  0.05822204  0.42506622     0.27300
C840        C  0.60008638  0.05916025  0.42083276    -0.13200
C841        C  0.61390526  0.06568981  0.44901218     0.05300
C842        C  0.60439687  0.07041250  0.48218855    -0.09200
C843        C  0.58079908  0.06958265  0.48624820     0.06200
C844        C  0.56699277  0.06395434  0.45753894    -0.13500
Br845      Br  0.56808884  0.00644162  0.42812489    -0.05600
Br846      Br  0.53092214  0.07822400  0.30667006     0.00000
Br847      Br  0.64583395  0.06867375  0.44149195     0.00500
Br848      Br  0.53479057  0.06327653  0.46272269    -0.03900
Br849      Br  0.53888885  0.98731118  0.35979708     0.00600
Br850      Br  0.55942701  0.09702206  0.37602465    -0.03200
Br851      Br  0.61327038  0.05065600  0.37656394    -0.04100
Br852      Br  0.56720615  0.07397248  0.53167826    -0.00100
C853        C  0.56598582  0.11700573  0.03118201     0.01300
C854        C  0.56211235  0.09357111  0.02931180     0.04100
C855        C  0.55604281  0.08155477  0.05967427    -0.11900
C856        C  0.55366349  0.09277268  0.09194443     0.23400
C857        C  0.55867517  0.11578921  0.09435202    -0.12500
C858        C  0.56494550  0.12788158  0.06418539     0.04800
C859        C  0.54446672  0.08059016  0.12273406     0.27300
C860        C  0.52106503  0.07955450  0.12768036    -0.13200
C861        C  0.51204828  0.06658103  0.15514086     0.05300
C862        C  0.52648726  0.05465415  0.17799719    -0.09200
C863        C  0.54997864  0.05692669  0.17425993     0.06200
C864        C  0.55892165  0.06968253  0.14648016    -0.13500
Br865      Br  0.55622418  0.13077279  0.13905667    -0.05600
Br866      Br  0.56319698  0.07783180  0.98506249     0.00000
Br867      Br  0.47986615  0.06446441  0.15999428     0.00500
Br868      Br  0.59097289  0.07227916  0.14062940    -0.03900
Br869      Br  0.57245176  0.15930469  0.06877083     0.00600
Br870      Br  0.55001449  0.04973848  0.05707346    -0.03200
Br871      Br  0.50144226  0.09580338  0.09624754    -0.04100
Br872      Br  0.56999036  0.04374981  0.20837552    -0.00100
C873        C  0.34902981  0.03165370  0.32200860     0.01300
C874        C  0.34476167  0.05488345  0.32596322     0.04100
C875        C  0.33214383  0.06267192  0.35473866    -0.11900
C876        C  0.32368836  0.04734414  0.37951221     0.23400
C877        C  0.32819950  0.02424981  0.37595529    -0.12500
C878        C  0.34089971  0.01639832  0.34741981     0.04800
C879        C  0.30957822  0.05535986  0.40900040     0.27300
C880        C  0.31945471  0.06049336  0.44151838    -0.13200
C881        C  0.30592448  0.06667164  0.47018109     0.05300
C882        C  0.28230345  0.06794375  0.46630671    -0.09200
C883        C  0.27253446  0.06333156  0.43321698     0.06200
C884        C  0.28616908  0.05691921  0.40479930    -0.13500
Br885      Br  0.31687186  0.00338875  0.41041529    -0.05600
Br886      Br  0.35504523  0.07606801  0.29123526     0.00000
Br887      Br  0.32004719  0.07140712  0.51521381     0.00500
Br888      Br  0.27287401  0.04951078  0.36008511    -0.03900
Br889      Br  0.34800173  0.98474861  0.34452937     0.00600
Br890      Br  0.32608273  0.09432310  0.36032747    -0.03200
Br891      Br  0.35158453  0.05807374  0.44693602    -0.04100
Br892      Br  0.24053137  0.06609082  0.42602505    -0.00100
C893        C  0.35985896  0.03628569  0.15270562     0.01300
C894        C  0.37345821  0.03804960  0.12261031     0.04100
C895        C  0.36549991  0.04942854  0.09281930    -0.11900
C896        C  0.34391418  0.05915378  0.09292642     0.23400
C897        C  0.32995629  0.05672464  0.12251930    -0.12500
C898        C  0.33795468  0.04534291  0.15245416     0.04800
C899        C  0.33740512  0.07426820  0.06368260     0.27300
C900        C  0.34700156  0.09582876  0.06209580    -0.13200
C901        C  0.34329585  0.10956798  0.03278522     0.05300
C902        C  0.32900134  0.10231122  0.00546366    -0.09200
C903        C  0.31921414  0.08073964  0.00711902     0.06200
C904        C  0.32353045  0.06668904  0.03617044    -0.13500
Br905      Br  0.30038061  0.06999423  0.12261650    -0.05600
Br906      Br  0.40308069  0.02486681  0.12200478     0.00000
Br907      Br  0.35981214  0.13739911  0.02892498     0.00500
Br908      Br  0.31085312  0.03693129  0.03818417    -0.03900
Br909      Br  0.31967537  0.04392417  0.19413709     0.00600
Br910      Br  0.38464755  0.05288240  0.05231187    -0.03200
Br911      Br  0.36597510  0.10624773  0.09987777    -0.04100
Br912      Br  0.29971389  0.07045292  0.97005168    -0.00100
C913        C  0.35529420  0.86684251  0.33070603     0.01300
C914        C  0.35775627  0.84416895  0.34127914     0.04100
C915        C  0.34551563  0.83590962  0.37005225    -0.11900
C916        C  0.33068486  0.85011344  0.38826022     0.23400
C917        C  0.32840745  0.87276105  0.37824164    -0.12500
C918        C  0.34093322  0.88123615  0.34993604     0.04800
C919        C  0.31730124  0.84126099  0.41791714     0.27300
C920        C  0.29673210  0.83046651  0.41141673    -0.13200
C921        C  0.28310879  0.82367888  0.43960286     0.05300
C922        C  0.29016854  0.82743131  0.47451626    -0.09200
C923        C  0.31128410  0.83749527  0.48084783     0.06200
C924        C  0.32476018  0.84438759  0.45257227    -0.13500
Br925      Br  0.30783858  0.89206008  0.40332061    -0.05600
Br926      Br  0.37709177  0.82384058  0.31589405     0.00000
Br927      Br  0.25498925  0.80901296  0.42987818     0.00500
Br928      Br  0.35323754  0.85882012  0.46108092    -0.03900
Br929      Br  0.33940529  0.91296540  0.33950594     0.00600
Br930      Br  0.34862792  0.80495581  0.38442809    -0.03200
Br931      Br  0.28721164  0.82539485  0.36363749    -0.04100
Br932      Br  0.32123552  0.84372792  0.52808470    -0.00100
C933        C  0.36601690  0.85041028  0.16319749     0.01300
C934        C  0.35869768  0.86021306  0.13130259     0.04100
C935        C  0.35290369  0.84646808  0.10261921    -0.11900
C936        C  0.35428160  0.82295382  0.10556594     0.23400
C937        C  0.36104960  0.81309796  0.13738631    -0.12500
C938        C  0.36673650  0.82672297  0.16620507     0.04800
C939        C  0.34948575  0.80860127  0.07466991     0.27300
C940        C  0.32736961  0.80164003  0.06746459    -0.13200
C941        C  0.32287871  0.78835593  0.03778037     0.05300
C942        C  0.34048570  0.78203953  0.01521198    -0.09200
C943        C  0.36272455  0.78857444  0.02287731     0.06200
C944        C  0.36716420  0.80199093  0.05243887    -0.13500
Br945      Br  0.36298049  0.78079963  0.14094920    -0.05600
Br946      Br  0.35779182  0.89242138  0.12555869     0.00000
Br947      Br  0.29281609  0.77772186  0.02900278     0.00500
Br948      Br  0.39741083  0.81164968  0.06257530    -0.03900
Br949      Br  0.37452884  0.81260102  0.21012490     0.00600
Br950      Br  0.34385046  0.85965092  0.05850365    -0.03200
Br951      Br  0.30332711  0.81027427  0.09845822    -0.04100
Br952      Br  0.38710348  0.77968842  0.99256193    -0.00100
C953        C  0.04487477  0.53154236  0.83533418     0.01300
C954        C  0.05586320  0.51644744  0.85823561     0.04100
C955        C  0.06889765  0.52468006  0.88615328    -0.11900
C956        C  0.07051434  0.54798375  0.89193071     0.23400
C957        C  0.05946696  0.56309448  0.86935422    -0.12500
C958        C  0.04703573  0.55493779  0.84068976     0.04800
C959        C  0.08363112  0.55658114  0.92208441     0.27300
C960        C  0.07419573  0.55642457  0.95587444    -0.13200
C961        C  0.08707809  0.56316513  0.98496258     0.05300
C962        C  0.10936162  0.57084542  0.98009834    -0.09200
C963        C  0.11798016  0.57279194  0.94565217     0.06200
C964        C  0.10545384  0.56491104  0.91693823    -0.13500
Br965      Br  0.06125113  0.59498785  0.87824627    -0.05600
Br966      Br  0.05215047  0.48442122  0.85289003     0.00000
Br967      Br  0.07408353  0.56054779  0.03115128     0.00500
Br968      Br  0.11836805  0.56482228  0.87050723    -0.03900
Br969      Br  0.03427137  0.57599981  0.80773218     0.00600
Br970      Br  0.08441410  0.50405445  0.91689435    -0.03200
Br971      Br  0.04363491  0.54639305  0.96206868    -0.04100
Br972      Br  0.14629174  0.58758840  0.93704562    -0.00100
C973        C  0.06523446  0.60759372  0.52198039     0.01300
C974        C  0.05443563  0.58662081  0.51818623     0.04100
C975        C  0.04862397  0.57399537  0.54807737    -0.11900
C976        C  0.05408973  0.58191647  0.58182820     0.23400
C977        C  0.06570276  0.60236345  0.58558503    -0.12500
C978        C  0.07092644  0.61535981  0.55583748     0.04800
C979        C  0.04638450  0.56941993  0.61338662     0.27300
C980        C  0.02493679  0.57376815  0.62729843    -0.13200
C981        C  0.01720785  0.56177234  0.65670642     0.05300
C982        C  0.03084980  0.54498946  0.67226106    -0.09200
C983        C  0.05256575  0.54090346  0.65847606     0.06200
C984        C  0.06024756  0.55312545  0.62917416    -0.13500
Br985      Br  0.07415042  0.61265438  0.63168987    -0.05600
Br986      Br  0.04599167  0.57579551  0.47231938     0.00000
Br987      Br  0.98734555  0.56794217  0.67406248     0.00500
Br988      Br  0.08980376  0.54763480  0.61034836    -0.03900
Br989      Br  0.08607701  0.64375683  0.56171875     0.00600
Br990      Br  0.03227539  0.54622380  0.54307686    -0.03200
Br991      Br  0.00590498  0.59595865  0.60527208    -0.04100
Br992      Br  0.07249145  0.51938460  0.68031984    -0.00100
C993        C  0.87006452  0.54810915  0.67640739     0.01300
C994        C  0.87769546  0.54326350  0.64225898     0.04100
C995        C  0.87160873  0.55728663  0.61415792    -0.11900
C996        C  0.85694547  0.57552202  0.61976105     0.23400
C997        C  0.84924963  0.58035634  0.65388169    -0.12500
C998        C  0.85603477  0.56681939  0.68226994     0.04800
C999        C  0.84885353  0.58889784  0.58943426     0.27300
C1000       C  0.85919776  0.60938763  0.58082004    -0.13200
C1001       C  0.85167292  0.62183989  0.55168529     0.05300
C1002       C  0.83420317  0.61336159  0.53018242    -0.09200
C1003       C  0.82402159  0.59267539  0.53883627     0.06200
C1004       C  0.83115133  0.58067326  0.56862603    -0.13500
Br1005     Br  0.82913816  0.60531335  0.66148363    -0.05600
Br1006     Br  0.89678496  0.51756235  0.63395588     0.00000
Br1007     Br  0.86654114  0.64980971  0.54059370     0.00500
Br1008     Br  0.81688292  0.55267438  0.58094013    -0.03900
Br1009     Br  0.84507397  0.57311610  0.72882517     0.00600
Br1010     Br  0.88362541  0.55181769  0.56797035    -0.03200
Br1011     Br  0.88440647  0.61977224  0.60820580    -0.04100
Br1012     Br  0.79989641  0.58077331  0.51060650    -0.00100
C1013       C  0.85095164  0.52694996  0.83898347     0.01300
C1014       C  0.85205848  0.54936428  0.85113712     0.04100
C1015       C  0.83932613  0.55607128  0.88034180    -0.11900
C1016       C  0.82519760  0.54059912  0.89723540     0.23400
C1017       C  0.82373802  0.51836032  0.88501400    -0.12500
C1018       C  0.83662894  0.51146805  0.85601577     0.04800
C1019       C  0.81169956  0.54786670  0.92776601     0.27300
C1020       C  0.82027889  0.54538026  0.96195695    -0.13200
C1021       C  0.80730329  0.55207456  0.99097044     0.05300
C1022       C  0.78596057  0.56190063  0.98567410    -0.09200
C1023       C  0.77780135  0.56504887  0.95127346     0.06200
C1024       C  0.79040375  0.55753057  0.92245780    -0.13500
Br1025     Br  0.80418708  0.49740073  0.90861397    -0.05600
Br1026     Br  0.87009732  0.57141081  0.82704017     0.00000
Br1027     Br  0.81823024  0.54623558  0.03775042     0.00500
Br1028     Br  0.77831748  0.55982490  0.87562899    -0.03900
Br1029     Br  0.83542140  0.48046160  0.84132899     0.00600
Br1030     Br  0.84117244  0.58648826  0.89765156    -0.03200
Br1031     Br  0.84961438  0.53223144  0.96873868    -0.04100
Br1032     Br  0.74979782  0.58062333  0.94337942    -0.00100
C1033       C  0.04312279  0.37137717  0.83578612     0.01300
C1034       C  0.05362297  0.38747152  0.85738801     0.04100
C1035       C  0.06666598  0.38050837  0.88615711    -0.11900
C1036       C  0.06992348  0.35744181  0.89261391     0.23400
C1037       C  0.05930827  0.34134485  0.87126991    -0.12500
C1038       C  0.04562483  0.34829291  0.84321011     0.04800
C1039       C  0.08449171  0.35002945  0.92190201     0.27300
C1040       C  0.10711323  0.34461197  0.91555918    -0.13200
C1041       C  0.12072512  0.33661101  0.94299259     0.05300
C1042       C  0.11217891  0.33545102  0.97757537    -0.09200
C1043       C  0.08945236  0.34126741  0.98386070     0.06200
C1044       C  0.07559327  0.34805840  0.95588203    -0.13500
Br1045     Br  0.06371134  0.30976606  0.88059029    -0.05600
Br1046     Br  0.04951554  0.41911503  0.84838548     0.00000
Br1047     Br  0.15067775  0.32615369  0.93221369     0.00500
Br1048     Br  0.04438579  0.35525084  0.96389447    -0.03900
Br1049     Br  0.03112820  0.32608738  0.81418564     0.00600
Br1050     Br  0.07975267  0.40248511  0.91721808    -0.03200
Br1051     Br  0.11955310  0.34880358  0.86928567    -0.04100
Br1052     Br  0.07721654  0.34159911  0.03073542    -0.00100
C1053       C  0.03041610  0.35202042  0.67214301     0.01300
C1054       C  0.05350031  0.35214630  0.66347740     0.04100
C1055       C  0.06146690  0.33904611  0.63537222    -0.11900
C1056       C  0.04638605  0.32641518  0.61501772     0.23400
C1057       C  0.02347198  0.32585569  0.62391535    -0.12500
C1058       C  0.01550758  0.33836202  0.65268106     0.04800
C1059       C  0.05436172  0.31477013  0.58295420     0.27300
C1060       C  0.05406866  0.32615070  0.55061434    -0.13200
C1061       C  0.06017812  0.31486623  0.51959588     0.05300
C1062       C  0.06698379  0.29207644  0.52092828    -0.09200
C1063       C  0.06857113  0.28119168  0.55389565     0.06200
C1064       C  0.06191326  0.29241660  0.58466683    -0.13500
Br1065     Br  0.00298979  0.30837328  0.59573787    -0.05600
Br1066     Br  0.07451762  0.36979372  0.69033450     0.00000
Br1067     Br  0.05785047  0.33067559  0.47553821     0.00500
Br1068     Br  0.06280551  0.27721367  0.62935900    -0.03900
Br1069     Br  0.98386405  0.33769250  0.66362790     0.00600
Br1070     Br  0.09306634  0.33828244  0.62431832    -0.03200
Br1071     Br  0.04473684  0.35722836  0.54911287    -0.04100
Br1072     Br  0.08095170  0.25125756  0.55767073    -0.00100
C1073       C  0.86630953  0.35495706  0.66649048     0.01300
C1074       C  0.86048926  0.33216365  0.67130747     0.04100
C1075       C  0.85291084  0.31925241  0.64273204    -0.11900
C1076       C  0.85094761  0.32899224  0.60919324     0.23400
C1077       C  0.85616846  0.35185696  0.60446064    -0.12500
C1078       C  0.86389026  0.36480880  0.63293401     0.04800
C1079       C  0.84536733  0.31463581  0.57845887     0.27300
C1080       C  0.86248766  0.30207710  0.56223737    -0.13200
C1081       C  0.85746383  0.28782293  0.53386410     0.05300
C1082       C  0.83510941  0.28584236  0.52158845    -0.09200
C1083       C  0.81798362  0.29859899  0.53780664     0.06200
C1084       C  0.82316291  0.31311339  0.56591611    -0.13500
Br1085     Br  0.85355694  0.36513101  0.55847498    -0.05600
Br1086     Br  0.86225635  0.31851941  0.71712708     0.00000
Br1087     Br  0.88172070  0.27197607  0.51112068     0.00500
Br1088     Br  0.79989324  0.33093662  0.58745057    -0.03900
Br1089     Br  0.87277574  0.39557285  0.62491002     0.00600
Br1090     Br  0.84577551  0.28790824  0.64914540    -0.03200
Br1091     Br  0.89299708  0.30467942  0.57903822    -0.04100
Br1092     Br  0.78714842  0.29520295  0.52324138    -0.00100
C1093       C  0.85705523  0.36961191  0.83426748     0.01300
C1094       C  0.86429588  0.37602886  0.86805126     0.04100
C1095       C  0.85236874  0.36882276  0.89779663    -0.11900
C1096       C  0.83360068  0.35470589  0.89387936     0.23400
C1097       C  0.82678340  0.34776796  0.86021961    -0.12500
C1098       C  0.83821940  0.35556159  0.83041266     0.04800
C1099       C  0.82014306  0.34817651  0.92487571     0.27300
C1100       C  0.82534364  0.32852312  0.94372592    -0.13200
C1101       C  0.81153672  0.32164290  0.97171156     0.05300
C1102       C  0.79274194  0.33477062  0.98144709    -0.09200
C1103       C  0.78804633  0.35488924  0.96299298     0.06200
C1104       C  0.80171393  0.36149377  0.93481602    -0.13500
Br1105     Br  0.80180613  0.32744690  0.85511504    -0.05600
Br1106     Br  0.88984589  0.39563210  0.87361816     0.00000
Br1107     Br  0.81781793  0.29359745  0.99513810     0.00500
Br1108     Br  0.79565839  0.38918397  0.91006584    -0.03900
Br1109     Br  0.82834770  0.34650778  0.78439695    -0.00200
Br1110     Br  0.86131729  0.37859821  0.94394895    -0.03200
Br1111     Br  0.85165684  0.31136729  0.93122556    -0.04100
Br1112     Br  0.76364317  0.37434105  0.97696235    -0.00100
loop_ 
_geom_bond_atom_site_label_1 
_geom_bond_atom_site_label_2 
_geom_bond_distance 
_geom_bond_site_symmetry_2 
_ccdc_geom_bond_type 
In1           O3   2.247       .  S
In1           O4   2.235       .  S
In1          O12   2.256       .  S
In1           O6   2.248       .  S
In1           O8   2.252       .  S
In1           O9   2.236       .  S
In1          O10   2.249       .  S
In1          O13   2.255       .  S
C2            O8   1.258       .  A
C2           O10   1.258       .  A
C2           C28   1.462       .  S
O3           C11   1.261       .  A
O4           C11   1.258       .  A
C5           O12   1.261       .  A
C5            O6   1.259       .  A
C5         C1073   1.485       .  S
C7            O9   1.257       .  A
C7           O13   1.261       .  A
C7           C24   1.461       .  S
C11        C1093   1.472       .  S
In14         O16   2.252   1_455  S
In14         O17   2.239   1_455  S
In14         O25   2.250       .  S
In14         O19   2.251       .  S
In14         O21   2.251       .  S
In14         O22   2.245       .  S
In14         O23   2.253       .  S
In14         O26   2.240       .  S
C15          O21   1.259       .  A
C15          O23   1.260       .  A
C15          C46   1.466       .  S
O16          C24   1.259       .  A
O17          C24   1.259       .  A
C18          O25   1.260       .  A
C18          O19   1.260       .  A
C18        C1053   1.484       .  S
C20          O22   1.260       .  A
C20          O26   1.261       .  A
C20        C1033   1.474       .  S
In27         O29   2.253       .  S
In27         O30   2.255       .  S
In27         O38   2.249       .  S
In27         O32   2.238       .  S
In27         O34   2.247       .  S
In27         O35   2.240       .  S
In27         O36   2.247       .  S
In27         O39   2.254       .  S
C28          O34   1.260       .  A
C28          O36   1.258       .  A
O29          C37   1.258       .  A
O30          C37   1.259       .  A
C31          O38   1.261       .  A
C31          O32   1.260       .  A
C31         C993   1.473       .  S
C33          O35   1.260       .  A
C33          O39   1.261       .  A
C33        C1013   1.481       .  S
C37          C41   1.466       .  S
In40         O42   2.245       .  S
In40         O43   2.250       .  S
In40         O51   2.245       .  S
In40         O45   2.246       .  S
In40         O47   2.254   1_455  S
In40         O48   2.248       .  S
In40         O49   2.256   1_455  S
In40         O52   2.254       .  S
C41          O47   1.258       .  A
C41          O49   1.259       .  A
O42          C50   1.260       .  A
O43          C50   1.260       .  A
C44          O51   1.261       .  A
C44          O45   1.260       .  A
C44         C953   1.480       .  S
C46          O48   1.261       .  A
C46          O52   1.259       .  A
C50         C982   1.488       .  S
In53         O55   2.252       .  S
In53         O56   2.260       .  S
In53         O64   2.249       .  S
In53         O58   2.245       .  S
In53         O60   2.248       .  S
In53         O61   2.255       .  S
In53         O62   2.243       .  S
In53         O65   2.248       .  S
C54          O60   1.261       .  A
C54          O62   1.259       .  A
C54         C102   1.463       .  S
O55          C63   1.260       .  A
O56          C63   1.260       .  A
C57          O64   1.261       .  A
C57          O58   1.260       .  A
C57         C913   1.484       .  S
C59          O61   1.258       .  A
C59          O65   1.260       .  A
C59          C67   1.465       .  S
C63         C933   1.488       .  S
In66         O68   2.250       .  S
In66         O69   2.256       .  S
In66         O77   2.245       .  S
In66         O71   2.254       .  S
In66         O73   2.257   1_545  S
In66         O74   2.256       .  S
In66         O75   2.248   1_545  S
In66         O78   2.237       .  S
C67          O73   1.261       .  A
C67          O75   1.256       .  A
O68          C76   1.261       .  A
O69          C76   1.260       .  A
C70          O77   1.260       .  A
C70          O71   1.259       .  A
C70         C893   1.476       .  S
C72          O74   1.261       .  A
C72          O78   1.259       .  A
C72         C873   1.481       .  S
C76          C80   1.468       .  S
In79         O81   2.255       .  S
In79         O82   2.253       .  S
In79         O90   2.250       .  S
In79         O84   2.253       .  S
In79         O86   2.259       .  S
In79         O87   2.259   1_545  S
In79         O88   2.247       .  S
In79         O91   2.249   1_545  S
C80          O86   1.262       .  A
C80          O88   1.259       .  A
O81          C89   1.260       .  A
O82          C89   1.262       .  A
C83          O90   1.260       .  A
C83          O84   1.262       .  A
C83         C833   1.481       .  S
C85          O87   1.263       .  A
C85          O91   1.259       .  A
C85          C93   1.470       .  S
C89         C862   1.484       .  S
In92         O94   2.246       .  S
In92         O95   2.248       .  S
In92        O103   2.253       .  S
In92         O97   2.254       .  S
In92         O99   2.263       .  S
In92        O100   2.239       .  S
In92        O101   2.256       .  S
In92        O104   2.254       .  S
C93          O99   1.259       .  A
C93         O101   1.260       .  A
O94         C102   1.261       .  A
O95         C102   1.259       .  A
C96         O103   1.260       .  A
C96          O97   1.261       .  A
C96         C813   1.486       .  S
C98         O100   1.259       .  A
C98         O104   1.261       .  A
C98         C793   1.479       .  S
In105       O107   2.230       .  S
In105       O108   2.249       .  S
In105       O116   2.239       .  S
In105       O110   2.256       .  S
In105       O112   2.248       .  S
In105       O113   2.234       .  S
In105       O114   2.239       .  S
In105       O117   2.229       .  S
C106        O112   1.263       .  A
C106        O114   1.258       .  A
C106       C1002   1.483       .  S
O107        C115   1.259       .  A
O108        C115   1.261       .  A
C109        O116   1.261       .  A
C109        O110   1.263       .  A
C109        C753   1.482       .  S
C111        O113   1.263       .  A
C111        O117   1.263       .  A
C111        C733   1.476       .  S
C115        C782   1.476       .  S
In118       O120   2.250       .  S
In118       O121   2.234       .  S
In118       O129   2.238       .  S
In118       O123   2.254       .  S
In118       O125   2.258       .  S
In118       O126   2.237       .  S
In118       O127   2.238       .  S
In118       O130   2.226       .  S
C119        O125   1.263       .  A
C119        O127   1.259       .  A
C119        C973   1.482       .  S
O120        C128   1.261       .  A
O121        C128   1.259       .  A
C122        O129   1.259       .  A
C122        O123   1.262       .  A
C122        C722   1.479       .  S
C124        O126   1.261       .  A
C124        O130   1.261       .  A
C124        C773   1.472       .  S
C128        C693   1.479       .  S
In131       O133   2.234       .  S
In131       O134   2.259       .  S
In131       O142   2.250       .  S
In131       O136   2.251       .  S
In131       O138   2.251       .  S
In131       O139   2.248       .  S
In131       O140   2.232       .  S
In131       O143   2.235       .  S
C132        O138   1.262       .  A
C132        O140   1.259       .  A
C132        C962   1.485   1_554  S
O133        C141   1.257       .  A
O134        C141   1.261       .  A
C135        O142   1.258       .  A
C135        O136   1.257       .  A
C135        C713   1.490       .  S
C137        O139   1.265       .  A
C137        O143   1.263       .  A
C137        C673   1.478       .  S
C141        C653   1.473       .  S
In144       O146   2.229       .  S
In144       O147   2.229       .  S
In144       O155   2.225       .  S
In144       O149   2.255       .  S
In144       O151   2.256       .  S
In144       O152   2.249       .  S
In144       O153   2.229       .  S
In144       O156   2.250       .  S
C145        O151   1.261       .  A
C145        O153   1.257       .  A
C145       C1042   1.484   1_554  S
O146        C154   1.263       .  A
O147        C154   1.263       .  A
C148        O155   1.257       .  A
C148        O149   1.261       .  A
C148        C633   1.484       .  S
C150        O152   1.257       .  A
C150        O156   1.259       .  A
C150        C613   1.479       .  S
C154        C682   1.473       .  S
In157       O159   2.224       .  S
In157       O160   2.256       .  S
In157       O168   2.247       .  S
In157       O162   2.255       .  S
In157       O164   2.257       .  S
In157       O165   2.244       .  S
In157       O166   2.227       .  S
In157       O169   2.242       .  S
C158        O164   1.263       .  A
C158        O166   1.259       .  A
C158       C1022   1.476   1_554  S
O159        C167   1.258       .  A
O160        C167   1.262       .  A
C161        O168   1.259       .  A
C161        O162   1.261       .  A
C161        C762   1.490       .  S
C163        O165   1.262       .  A
C163        O169   1.262       .  A
C163        C573   1.478       .  S
C167        C593   1.476       .  S
In170       O172   2.249       .  S
In170       O173   2.242       .  S
In170       O181   2.246       .  S
In170       O175   2.247       .  S
In170       O177   2.262       .  S
In170       O178   2.251       .  S
In170       O179   2.241       .  S
In170       O182   2.237       .  S
C171        O177   1.261       .  A
C171        O179   1.257       .  A
C171       C1102   1.483   1_554  S
O172        C180   1.263       .  A
O173        C180   1.261       .  A
C174        O181   1.262       .  A
C174        O175   1.262       .  A
C174        C562   1.479       .  S
C176        O178   1.261       .  A
C176        O182   1.258       .  A
C176        C602   1.480       .  S
C180        C542   1.488       .  S
In183       O185   2.247       .  S
In183       O186   2.246       .  S
In183       O194   2.249       .  S
In183       O188   2.257       .  S
In183       O190   2.264       .  S
In183       O191   2.251       .  S
In183       O192   2.246       .  S
In183       O195   2.227       .  S
C184        O190   1.263       .  A
C184        O192   1.259       .  A
C184       C1082   1.488       .  S
O185        C193   1.263       .  A
O186        C193   1.261       .  A
C187        O194   1.259       .  A
C187        O188   1.261       .  A
C187        C553   1.491       .  S
C189        O191   1.261       .  A
C189        O195   1.259       .  A
C189        C513   1.475       .  S
C193        C502   1.484       .  S
In196       O198   2.236       .  S
In196       O199   2.225       .  S
In196       O207   2.236       .  S
In196       O201   2.248       .  S
In196       O203   2.264       .  S
In196       O204   2.246       .  S
In196       O205   2.233       .  S
In196       O208   2.237       .  S
C197        O203   1.262       .  A
C197        O205   1.258       .  A
C197       C1062   1.487       .  S
O198        C206   1.263       .  A
O199        C206   1.262       .  A
C200        O207   1.259       .  A
C200        O201   1.262       .  A
C200        C642   1.481       .  S
C202        O204   1.259       .  A
C202        O208   1.258       .  A
C202        C482   1.471       .  S
C206        C522   1.475       .  S
In209       O211   2.225       .  S
In209       O212   2.252       .  S
In209       O220   2.243       .  S
In209       O214   2.243       .  S
In209       O216   2.252       .  S
In209       O217   2.235       .  S
In209       O218   2.232       .  S
In209       O221   2.231       .  S
C210        O216   1.262       .  A
C210        O218   1.259       .  A
C210        C802   1.479       .  S
O211        C219   1.259       .  A
O212        C219   1.262       .  A
C213        O220   1.260       .  A
C213        O214   1.262       .  A
C213        C433   1.486       .  S
C215        O217   1.262       .  A
C215        O221   1.261       .  A
C215        C742   1.479       .  S
C219        C462   1.474       .  S
In222       O224   2.244       .  S
In222       O225   2.250       .  S
In222       O233   2.245       .  S
In222       O227   2.256       .  S
In222       O229   2.265       .  S
In222       O230   2.247       .  S
In222       O231   2.240       .  S
In222       O234   2.231       .  S
C223        O229   1.262       .  A
C223        O231   1.257       .  A
C223        C842   1.486       .  S
O224        C232   1.259       .  A
O225        C232   1.258       .  A
C226        O233   1.261       .  A
C226        O227   1.261       .  A
C226        C413   1.482       .  S
C228        O230   1.261       .  A
C228        O234   1.260       .  A
C228        C453   1.480       .  S
C232        C493   1.483       .  S
In235       O237   2.232       .  S
In235       O238   2.255       .  S
In235       O246   2.234       .  S
In235       O240   2.253       .  S
In235       O242   2.261       .  S
In235       O243   2.250       .  S
In235       O244   2.237       .  S
In235       O247   2.243       .  S
C236        O242   1.262       .  A
C236        O244   1.258       .  A
C236        C853   1.487   1_556  S
O237        C245   1.261       .  A
O238        C245   1.263       .  A
C239        O246   1.260       .  A
C239        O240   1.263       .  A
C239        C422   1.486       .  S
C241        O243   1.262       .  A
C241        O247   1.260       .  A
C241        C393   1.483       .  S
C245        C533   1.485       .  S
In248       O250   2.221       .  S
In248       O251   2.255       .  S
In248       O259   2.247       .  S
In248       O253   2.242       .  S
In248       O255   2.265       .  S
In248       O256   2.240       .  S
In248       O257   2.221       .  S
In248       O260   2.236       .  S
C249        O255   1.263       .  A
C249        O257   1.258       .  A
C249        C902   1.479   1_556  S
O250        C258   1.257       .  A
O251        C258   1.261       .  A
C252        O259   1.258       .  A
C252        O253   1.259       .  A
C252        C373   1.478       .  S
C254        O256   1.261       .  A
C254        O260   1.260       .  A
C254        C622   1.474       .  S
C258        C402   1.466       .  S
In261       O263   2.242       .  S
In261       O264   2.245       .  S
In261       O272   2.250       .  S
In261       O266   2.256       .  S
In261       O268   2.261       .  S
In261       O269   2.245       .  S
In261       O270   2.233       .  S
In261       O273   2.258       .  S
C262        O268   1.264       .  A
C262        O270   1.259       .  A
C262        C822   1.485   1_556  S
O263        C271   1.260       .  A
O264        C271   1.262       .  A
C265        O272   1.259       .  A
C265        O266   1.262       .  A
C265        C442   1.482       .  S
C267        O269   1.260       .  A
C267        O273   1.262       .  A
C267        C582   1.485       .  S
C271        C353   1.477       .  S
In274       O276   2.240       .  S
In274       O277   2.247       .  S
In274       O285   2.248       .  S
In274       O279   2.258       .  S
In274       O281   2.250       .  S
In274       O282   2.244       .  S
In274       O283   2.240       .  S
In274       O286   2.225       .  S
C275        O281   1.264       .  A
C275        O283   1.259       .  A
C275        C942   1.474   1_556  S
O276        C284   1.260       .  A
O277        C284   1.261       .  A
C278        O285   1.260       .  A
C278        O279   1.262       .  A
C278        C342   1.487       .  S
C280        O282   1.263       .  A
C280        O286   1.260       .  A
C280        C362   1.476       .  S
C284        C662   1.476       .  S
In287       O289   2.243       .  S
In287       O290   2.248       .  S
In287       O298   2.244       .  S
In287       O292   2.254       .  S
In287       O294   2.245       .  S
In287       O295   2.248       .  S
In287       O296   2.246       .  S
In287       O299   2.241       .  S
C288        O294   1.262       .  A
C288        O296   1.261       .  A
C288        C922   1.482       .  S
O289        C297   1.260       .  A
O290        C297   1.260       .  A
C291        O298   1.259       .  A
C291        O292   1.260       .  A
C291        C333   1.477       .  S
C293        O295   1.261       .  A
C293        O299   1.259       .  A
C293        C313   1.481       .  S
C297        C702   1.479       .  S
In300       O302   2.226       .  S
In300       O303   2.257       .  S
In300       O311   2.242       .  S
In300       O305   2.250       .  S
In300       O307   2.246       .  S
In300       O308   2.250       .  S
In300       O309   2.234       .  S
In300       O312   2.240       .  S
C301        O307   1.263       .  A
C301        O309   1.260       .  A
C301        C882   1.484       .  S
O302        C310   1.260       .  A
O303        C310   1.265       .  A
C304        O311   1.260       .  A
C304        O305   1.261       .  A
C304        C382   1.485       .  S
C306        O308   1.263       .  A
C306        O312   1.260       .  A
C306        C473   1.482       .  S
C310        C322   1.476       .  S
C313        C314   1.414       .  A
C313        C318   1.414       .  A
C314        C315   1.407       .  A
C314       Br326   1.932       .  S
C315        C316   1.407       .  A
C315       Br330   1.930       .  S
C316        C319   1.482       .  S
C316        C317   1.406       .  A
C317        C318   1.406       .  A
C317       Br325   1.931       .  S
C318       Br329   1.928       .  S
C319        C320   1.408       .  A
C319        C324   1.408       .  A
C320        C321   1.405       .  A
C320       Br331   1.931       .  S
C321        C322   1.413   1_565  A
C321       Br327   1.934   1_565  S
C322        C323   1.411   1_545  A
C323        C324   1.409       .  A
C323       Br332   1.927   1_565  S
C324       Br328   1.929       .  S
C333        C334   1.411       .  A
C333        C338   1.410       .  A
C334        C335   1.409       .  A
C334       Br346   1.932       .  S
C335        C336   1.410       .  A
C335       Br350   1.928       .  S
C336        C339   1.488       .  S
C336        C337   1.410       .  A
C337        C338   1.407       .  A
C337       Br345   1.930       .  S
C338       Br349   1.928       .  S
C339        C340   1.409       .  A
C339        C344   1.409       .  A
C340        C341   1.410       .  A
C340       Br351   1.929       .  S
C341        C342   1.414       .  A
C341       Br347   1.930       .  S
C342        C343   1.415       .  A
C343        C344   1.409       .  A
C343       Br352   1.931       .  S
C344       Br348   1.931       .  S
C353        C354   1.411       .  A
C353        C358   1.412       .  A
C354        C355   1.409       .  A
C354       Br366   1.930       .  S
C355        C356   1.409       .  A
C355       Br370   1.927       .  S
C356        C359   1.485       .  S
C356        C357   1.410       .  A
C357        C358   1.406       .  A
C357       Br365   1.932       .  S
C358       Br369   1.933       .  S
C359        C360   1.408       .  A
C359        C364   1.410       .  A
C360        C361   1.406       .  A
C360       Br371   1.928       .  S
C361        C362   1.411       .  A
C361       Br367   1.931       .  S
C362        C363   1.413       .  A
C363        C364   1.408       .  A
C363       Br372   1.933       .  S
C364       Br368   1.930       .  S
C373        C374   1.414       .  A
C373        C378   1.414       .  A
C374        C375   1.408       .  A
C374       Br386   1.931       .  S
C375        C376   1.408       .  A
C375       Br390   1.931       .  S
C376        C379   1.481       .  S
C376        C377   1.406       .  A
C377        C378   1.405       .  A
C377       Br385   1.930       .  S
C378       Br389   1.933       .  S
C379        C380   1.407       .  A
C379        C384   1.405       .  A
C380        C381   1.408       .  A
C380       Br391   1.931       .  S
C381        C382   1.416       .  A
C381       Br387   1.931       .  S
C382        C383   1.417       .  A
C383        C384   1.406       .  A
C383       Br392   1.930       .  S
C384       Br388   1.932       .  S
C393        C394   1.416       .  A
C393        C398   1.414       .  A
C394        C395   1.407       .  A
C394       Br406   1.934       .  S
C395        C396   1.408       .  A
C395       Br410   1.934       .  S
C396        C399   1.482       .  S
C396        C397   1.406       .  A
C397        C398   1.409       .  A
C397       Br405   1.928       .  S
C398       Br409   1.929       .  S
C399        C400   1.410       .  A
C399        C404   1.409       .  A
C400        C401   1.406       .  A
C400       Br411   1.928       .  S
C401        C402   1.408       .  A
C401       Br407   1.932       .  S
C402        C403   1.407       .  A
C403        C404   1.405       .  A
C403       Br412   1.929       .  S
C404       Br408   1.928       .  S
C413        C414   1.413       .  A
C413        C418   1.412       .  A
C414        C415   1.409       .  A
C414       Br426   1.930       .  S
C415        C416   1.409       .  A
C415       Br430   1.930       .  S
C416        C419   1.486       .  S
C416        C417   1.408       .  A
C417        C418   1.408       .  A
C417       Br425   1.929       .  S
C418       Br429   1.931       .  S
C419        C420   1.407       .  A
C419        C424   1.408       .  A
C420        C421   1.408       .  A
C420       Br431   1.931       .  S
C421        C422   1.417       .  A
C421       Br427   1.934       .  S
C422        C423   1.416       .  A
C423        C424   1.410       .  A
C423       Br432   1.932       .  S
C424       Br428   1.931       .  S
C433        C434   1.418       .  A
C433        C438   1.417       .  A
C434        C435   1.408       .  A
C434       Br446   1.931       .  S
C435        C436   1.406       .  A
C435       Br450   1.932       .  S
C436        C439   1.484       .  S
C436        C437   1.407       .  A
C437        C438   1.408       .  A
C437       Br445   1.931       .  S
C438       Br449   1.933       .  S
C439        C440   1.407       .  A
C439        C444   1.408       .  A
C440        C441   1.408       .  A
C440       Br451   1.931       .  S
C441        C442   1.413       .  A
C441       Br447   1.926       .  S
C442        C443   1.413       .  A
C443        C444   1.408       .  A
C443       Br452   1.931       .  S
C444       Br448   1.930       .  S
C453        C454   1.412   1_545  A
C453        C458   1.416   1_545  A
C454        C455   1.407       .  A
C454       Br466   1.931   1_565  S
C455        C456   1.409       .  A
C455       Br470   1.931       .  S
C456        C459   1.483       .  S
C456        C457   1.408       .  A
C457        C458   1.408       .  A
C457       Br465   1.931       .  S
C458       Br469   1.933   1_565  S
C459        C460   1.410       .  A
C459        C464   1.409       .  A
C460        C461   1.408       .  A
C460       Br471   1.929       .  S
C461        C462   1.410       .  A
C461       Br467   1.930       .  S
C462        C463   1.411       .  A
C463        C464   1.404       .  A
C463       Br472   1.934       .  S
C464       Br468   1.932       .  S
C473        C474   1.414       .  A
C473        C478   1.415       .  A
C474        C475   1.407       .  A
C474       Br486   1.931       .  S
C475        C476   1.408       .  A
C475       Br490   1.931       .  S
C476        C479   1.484       .  S
C476        C477   1.408       .  A
C477        C478   1.408       .  A
C477       Br485   1.931       .  S
C478       Br489   1.932       .  S
C479        C480   1.410       .  A
C479        C484   1.409       .  A
C480        C481   1.406       .  A
C480       Br491   1.929       .  S
C481        C482   1.409       .  A
C481       Br487   1.931       .  S
C482        C483   1.410       .  A
C483        C484   1.406       .  A
C483       Br492   1.931       .  S
C484       Br488   1.929       .  S
C493        C494   1.416       .  A
C493        C498   1.414       .  A
C494        C495   1.409       .  A
C494       Br506   1.932       .  S
C495        C496   1.408       .  A
C495       Br510   1.931       .  S
C496        C499   1.486       .  S
C496        C497   1.408       .  A
C497        C498   1.407       .  A
C497       Br505   1.930       .  S
C498       Br509   1.934       .  S
C499        C500   1.408       .  A
C499        C504   1.408       .  A
C500        C501   1.408       .  A
C500       Br511   1.930       .  S
C501        C502   1.414       .  A
C501       Br507   1.931       .  S
C502        C503   1.416       .  A
C503        C504   1.409       .  A
C503       Br512   1.931       .  S
C504       Br508   1.932       .  S
C513        C514   1.411       .  A
C513        C518   1.413       .  A
C514        C515   1.405       .  A
C514       Br526   1.931       .  S
C515        C516   1.407       .  A
C515       Br530   1.930       .  S
C516        C519   1.479       .  S
C516        C517   1.408       .  A
C517        C518   1.407       .  A
C517       Br525   1.931       .  S
C518       Br529   1.932       .  S
C519        C520   1.407       .  A
C519        C524   1.408       .  A
C520        C521   1.406       .  A
C520       Br531   1.929       .  S
C521        C522   1.412   1_655  A
C521       Br527   1.931   1_655  S
C522        C523   1.413   1_455  A
C523        C524   1.405       .  A
C523       Br532   1.933   1_655  S
C524       Br528   1.931       .  S
C533        C534   1.416       .  A
C533        C538   1.415       .  A
C534        C535   1.411       .  A
C534       Br546   1.931       .  S
C535        C536   1.408       .  A
C535       Br550   1.930       .  S
C536        C539   1.488       .  S
C536        C537   1.407   1_556  A
C537        C538   1.407   1_554  A
C537       Br545   1.930       .  S
C538       Br549   1.933   1_556  S
C539        C540   1.407       .  A
C539        C544   1.408   1_556  A
C540        C541   1.410       .  A
C540       Br551   1.929       .  S
C541        C542   1.417   1_556  A
C541       Br547   1.933       .  S
C542        C543   1.416       .  A
C543        C544   1.409       .  A
C543       Br552   1.932       .  S
C544       Br548   1.932       .  S
C553        C554   1.419       .  A
C553        C558   1.416       .  A
C554        C555   1.410       .  A
C554       Br566   1.934       .  S
C555        C556   1.407       .  A
C555       Br570   1.931       .  S
C556        C559   1.488       .  S
C556        C557   1.407       .  A
C557        C558   1.409       .  A
C557       Br565   1.930       .  S
C558       Br569   1.931       .  S
C559        C560   1.409       .  A
C559        C564   1.410       .  A
C560        C561   1.409       .  A
C560       Br571   1.930       .  S
C561        C562   1.412       .  A
C561       Br567   1.931       .  S
C562        C563   1.410       .  A
C563        C564   1.409       .  A
C563       Br572   1.930       .  S
C564       Br568   1.928       .  S
C573        C574   1.411       .  A
C573        C578   1.412       .  A
C574        C575   1.408       .  A
C574       Br586   1.932       .  S
C575        C576   1.410       .  A
C575       Br590   1.929       .  S
C576        C579   1.487   1_554  S
C576        C577   1.409   1_554  A
C577        C578   1.409   1_556  A
C577       Br585   1.930       .  S
C578       Br589   1.930   1_554  S
C579        C580   1.408   1_556  A
C579        C584   1.407       .  A
C580        C581   1.410   1_554  A
C580       Br591   1.930       .  S
C581        C582   1.415       .  A
C581       Br587   1.932   1_556  S
C582        C583   1.414       .  A
C583        C584   1.409       .  A
C583       Br592   1.927       .  S
C584       Br588   1.930       .  S
C593        C594   1.412       .  A
C593        C598   1.414       .  A
C594        C595   1.405       .  A
C594       Br606   1.931       .  S
C595        C596   1.406       .  A
C595       Br610   1.929       .  S
C596        C599   1.479       .  S
C596        C597   1.408       .  A
C597        C598   1.407       .  A
C597       Br605   1.932       .  S
C598       Br609   1.931       .  S
C599        C600   1.408       .  A
C599        C604   1.406       .  A
C600        C601   1.405       .  A
C600       Br611   1.933       .  S
C601        C602   1.416       .  A
C601       Br607   1.935       .  S
C602        C603   1.414       .  A
C603        C604   1.407       .  A
C603       Br612   1.929       .  S
C604       Br608   1.931       .  S
C613        C614   1.415   1_554  A
C613        C618   1.413       .  A
C614        C615   1.407       .  A
C614       Br626   1.930       .  S
C615        C616   1.406       .  A
C615       Br630   1.931       .  S
C616        C619   1.479       .  S
C616        C617   1.407   1_556  A
C617        C618   1.406       .  A
C617       Br625   1.931       .  S
C618       Br629   1.932       .  S
C619        C620   1.407       .  A
C619        C624   1.407       .  A
C620        C621   1.406       .  A
C620       Br631   1.930       .  S
C621        C622   1.412       .  A
C621       Br627   1.931       .  S
C622        C623   1.413       .  A
C623        C624   1.406       .  A
C623       Br632   1.930       .  S
C624       Br628   1.930   1_556  S
C633        C634   1.418       .  A
C633        C638   1.417       .  A
C634        C635   1.406       .  A
C634       Br646   1.935       .  S
C635        C636   1.405       .  A
C635       Br650   1.930       .  S
C636        C639   1.481       .  S
C636        C637   1.407       .  A
C637        C638   1.407       .  A
C637       Br645   1.932       .  S
C638       Br649   1.933       .  S
C639        C640   1.406       .  A
C639        C644   1.407       .  A
C640        C641   1.407       .  A
C640       Br651   1.932       .  S
C641        C642   1.416       .  A
C641       Br647   1.932       .  S
C642        C643   1.415       .  A
C643        C644   1.408       .  A
C643       Br652   1.931       .  S
C644       Br648   1.930       .  S
C653        C654   1.411       .  A
C653        C658   1.409       .  A
C654        C655   1.407       .  A
C654       Br666   1.931       .  S
C655        C656   1.409       .  A
C655       Br670   1.930       .  S
C656        C659   1.482   1_554  S
C656        C657   1.409   1_554  A
C657        C658   1.407   1_556  A
C657       Br665   1.930       .  S
C658       Br669   1.929   1_554  S
C659        C660   1.408       .  A
C659        C664   1.408   1_556  A
C660        C661   1.407       .  A
C660       Br671   1.929       .  S
C661        C662   1.411       .  A
C661       Br667   1.931       .  S
C662        C663   1.412       .  A
C663        C664   1.408   1_556  A
C663       Br672   1.930   1_556  S
C664       Br668   1.930       .  S
C673        C674   1.412       .  A
C673        C678   1.411       .  A
C674        C675   1.406       .  A
C674       Br686   1.933       .  S
C675        C676   1.409       .  A
C675       Br690   1.933       .  S
C676        C679   1.483       .  S
C676        C677   1.408       .  A
C677        C678   1.409       .  A
C677       Br685   1.929       .  S
C678       Br689   1.929       .  S
C679        C680   1.408       .  A
C679        C684   1.409       .  A
C680        C681   1.406       .  A
C680       Br691   1.929       .  S
C681        C682   1.411       .  A
C681       Br687   1.932       .  S
C682        C683   1.412       .  A
C683        C684   1.406       .  A
C683       Br692   1.934       .  S
C684       Br688   1.928       .  S
C693        C694   1.414       .  A
C693        C698   1.414       .  A
C694        C695   1.407       .  A
C694       Br706   1.931       .  S
C695        C696   1.409       .  A
C695       Br710   1.931       .  S
C696        C699   1.482       .  S
C696        C697   1.407       .  A
C697        C698   1.406       .  A
C697       Br705   1.930       .  S
C698       Br709   1.932       .  S
C699        C700   1.409       .  A
C699        C704   1.406       .  A
C700        C701   1.409       .  A
C700       Br711   1.931       .  S
C701        C702   1.414       .  A
C701       Br707   1.931       .  S
C702        C703   1.412       .  A
C703        C704   1.405       .  A
C703       Br712   1.928       .  S
C704       Br708   1.931       .  S
C713        C714   1.418       .  A
C713        C718   1.420       .  A
C714        C715   1.407       .  A
C714       Br726   1.933       .  S
C715        C716   1.405       .  A
C715       Br730   1.932       .  S
C716        C719   1.482       .  S
C716        C717   1.405       .  A
C717        C718   1.409       .  A
C717       Br725   1.931       .  S
C718       Br729   1.932       .  S
C719        C720   1.408       .  A
C719        C724   1.406       .  A
C720        C721   1.408       .  A
C720       Br731   1.930       .  S
C721        C722   1.413       .  A
C721       Br727   1.930       .  S
C722        C723   1.414       .  A
C723        C724   1.407       .  A
C723       Br732   1.931       .  S
C724       Br728   1.930       .  S
C733        C734   1.412       .  A
C733        C738   1.414       .  A
C734        C735   1.405       .  A
C734       Br746   1.930       .  S
C735        C736   1.407       .  A
C735       Br750   1.931       .  S
C736        C739   1.480       .  S
C736        C737   1.407       .  A
C737        C738   1.406       .  A
C737       Br745   1.930       .  S
C738       Br749   1.933       .  S
C739        C740   1.408       .  A
C739        C744   1.406       .  A
C740        C741   1.406       .  A
C740       Br751   1.930       .  S
C741        C742   1.414       .  A
C741       Br747   1.934       .  S
C742        C743   1.415       .  A
C743        C744   1.406       .  A
C743       Br752   1.932       .  S
C744       Br748   1.932       .  S
C753        C754   1.412       .  A
C753        C758   1.413       .  A
C754        C755   1.409       .  A
C754       Br766   1.929       .  S
C755        C756   1.409       .  A
C755       Br770   1.929       .  S
C756        C759   1.488       .  S
C756        C757   1.408       .  A
C757        C758   1.408       .  A
C757       Br765   1.929       .  S
C758       Br769   1.928       .  S
C759        C760   1.408       .  A
C759        C764   1.407       .  A
C760        C761   1.410       .  A
C760       Br771   1.932       .  S
C761        C762   1.417       .  A
C761       Br767   1.931       .  S
C762        C763   1.419       .  A
C763        C764   1.410       .  A
C763       Br772   1.933       .  S
C764       Br768   1.930       .  S
C773        C774   1.411   1_455  A
C773        C778   1.413   1_455  A
C774        C775   1.404       .  A
C774       Br786   1.932   1_655  S
C775        C776   1.407       .  A
C775       Br790   1.930       .  S
C776        C779   1.478       .  S
C776        C777   1.407       .  A
C777        C778   1.406       .  A
C777       Br785   1.930       .  S
C778       Br789   1.932   1_655  S
C779        C780   1.407       .  A
C779        C784   1.406       .  A
C780        C781   1.408       .  A
C780       Br791   1.928       .  S
C781        C782   1.412       .  A
C781       Br787   1.929       .  S
C782        C783   1.414       .  A
C783        C784   1.403       .  A
C783       Br792   1.933       .  S
C784       Br788   1.934       .  S
C793        C794   1.414       .  A
C793        C798   1.413       .  A
C794        C795   1.407       .  A
C794       Br806   1.931       .  S
C795        C796   1.406       .  A
C795       Br810   1.930       .  S
C796        C799   1.482       .  S
C796        C797   1.409       .  A
C797        C798   1.408       .  A
C797       Br805   1.932       .  S
C798       Br809   1.931       .  S
C799        C800   1.408       .  A
C799        C804   1.407       .  A
C800        C801   1.407       .  A
C800       Br811   1.930       .  S
C801        C802   1.414       .  A
C801       Br807   1.931       .  S
C802        C803   1.412       .  A
C803        C804   1.406       .  A
C803       Br812   1.930       .  S
C804       Br808   1.930       .  S
C813        C814   1.414       .  A
C813        C818   1.414       .  A
C814        C815   1.411       .  A
C814       Br826   1.932       .  S
C815        C816   1.410       .  A
C815       Br830   1.928       .  S
C816        C819   1.492       .  S
C816        C817   1.411       .  A
C817        C818   1.410       .  A
C817       Br825   1.931       .  S
C818       Br829   1.932       .  S
C819        C820   1.410       .  A
C819        C824   1.411       .  A
C820        C821   1.409       .  A
C820       Br831   1.930       .  S
C821        C822   1.413       .  A
C821       Br827   1.931   1_554  S
C822        C823   1.414       .  A
C823        C824   1.410       .  A
C823       Br832   1.934       .  S
C824       Br828   1.929       .  S
C833        C834   1.412       .  A
C833        C838   1.412       .  A
C834        C835   1.409       .  A
C834       Br846   1.930       .  S
C835        C836   1.409       .  A
C835       Br850   1.929       .  S
C836        C839   1.488       .  S
C836        C837   1.409       .  A
C837        C838   1.409       .  A
C837       Br845   1.930       .  S
C838       Br849   1.931   1_545  S
C839        C840   1.408       .  A
C839        C844   1.408       .  A
C840        C841   1.409       .  A
C840       Br851   1.930       .  S
C841        C842   1.415       .  A
C841       Br847   1.933       .  S
C842        C843   1.416       .  A
C843        C844   1.410       .  A
C843       Br852   1.931       .  S
C844       Br848   1.929       .  S
C853        C854   1.416       .  A
C853        C858   1.417       .  A
C854        C855   1.409       .  A
C854       Br866   1.932   1_554  S
C855        C856   1.408       .  A
C855       Br870   1.931       .  S
C856        C859   1.486       .  S
C856        C857   1.406       .  A
C857        C858   1.408       .  A
C857       Br865   1.930       .  S
C858       Br869   1.932       .  S
C859        C860   1.409       .  A
C859        C864   1.407       .  A
C860        C861   1.409       .  A
C860       Br871   1.932       .  S
C861        C862   1.414       .  A
C861       Br867   1.931       .  S
C862        C863   1.414       .  A
C863        C864   1.409       .  A
C863       Br872   1.930       .  S
C864       Br868   1.929       .  S
C873        C874   1.414       .  A
C873        C878   1.415       .  A
C874        C875   1.409       .  A
C874       Br886   1.930       .  S
C875        C876   1.408       .  A
C875       Br890   1.930       .  S
C876        C879   1.483       .  S
C876        C877   1.407       .  A
C877        C878   1.406       .  A
C877       Br885   1.931       .  S
C878       Br889   1.934   1_545  S
C879        C880   1.406       .  A
C879        C884   1.407       .  A
C880        C881   1.408       .  A
C880       Br891   1.930       .  S
C881        C882   1.417       .  A
C881       Br887   1.933       .  S
C882        C883   1.417       .  A
C883        C884   1.408       .  A
C883       Br892   1.933       .  S
C884       Br888   1.931       .  S
C893        C894   1.410       .  A
C893        C898   1.411       .  A
C894        C895   1.404       .  A
C894       Br906   1.930       .  S
C895        C896   1.409       .  A
C895       Br910   1.933       .  S
C896        C899   1.484       .  S
C896        C897   1.410       .  A
C897        C898   1.410       .  A
C897       Br905   1.930       .  S
C898       Br909   1.930       .  S
C899        C900   1.408       .  A
C899        C904   1.410       .  A
C900        C901   1.402       .  A
C900       Br911   1.934       .  S
C901        C902   1.414       .  A
C901       Br907   1.934       .  S
C902        C903   1.413       .  A
C903        C904   1.411       .  A
C903       Br912   1.930   1_554  S
C904       Br908   1.929       .  S
C913        C914   1.416       .  A
C913        C918   1.415       .  A
C914        C915   1.407       .  A
C914       Br926   1.931       .  S
C915        C916   1.406       .  A
C915       Br930   1.931       .  S
C916        C919   1.482       .  S
C916        C917   1.408       .  A
C917        C918   1.407       .  A
C917       Br925   1.933       .  S
C918       Br929   1.932       .  S
C919        C920   1.407       .  A
C919        C924   1.407       .  A
C920        C921   1.407       .  A
C920       Br931   1.932       .  S
C921        C922   1.414       .  A
C921       Br927   1.926       .  S
C922        C923   1.415       .  A
C923        C924   1.407       .  A
C923       Br932   1.933       .  S
C924       Br928   1.931       .  S
C933        C934   1.417       .  A
C933        C938   1.415       .  A
C934        C935   1.410       .  A
C934       Br946   1.931       .  S
C935        C936   1.407       .  A
C935       Br950   1.933       .  S
C936        C939   1.484       .  S
C936        C937   1.406       .  A
C937        C938   1.408       .  A
C937       Br945   1.931       .  S
C938       Br949   1.930       .  S
C939        C940   1.409       .  A
C939        C944   1.408       .  A
C940        C941   1.407       .  A
C940       Br951   1.927       .  S
C941        C942   1.408       .  A
C941       Br947   1.930       .  S
C942        C943   1.412       .  A
C943        C944   1.407       .  A
C943       Br952   1.931   1_554  S
C944       Br948   1.931       .  S
C953        C954   1.413       .  A
C953        C958   1.414       .  A
C954        C955   1.406       .  A
C954       Br966   1.931       .  S
C955        C956   1.408       .  A
C955       Br970   1.931       .  S
C956        C959   1.482       .  S
C956        C957   1.407       .  A
C957        C958   1.407       .  A
C957       Br965   1.932       .  S
C958       Br969   1.930       .  S
C959        C960   1.407       .  A
C959        C964   1.406       .  A
C960        C961   1.408       .  A
C960       Br971   1.932       .  S
C961        C962   1.417       .  A
C961       Br967   1.932   1_556  S
C962        C963   1.416       .  A
C963        C964   1.406       .  A
C963       Br972   1.933       .  S
C964       Br968   1.932       .  S
C973        C974   1.413       .  A
C973        C978   1.413       .  A
C974        C975   1.409       .  A
C974       Br986   1.931       .  S
C975        C976   1.409       .  A
C975       Br990   1.930       .  S
C976        C979   1.488       .  S
C976        C977   1.409       .  A
C977        C978   1.409       .  A
C977       Br985   1.929       .  S
C978       Br989   1.931       .  S
C979        C980   1.408       .  A
C979        C984   1.408       .  A
C980        C981   1.408       .  A
C980       Br991   1.931       .  S
C981        C982   1.417       .  A
C981       Br987   1.934   1_455  S
C982        C983   1.418       .  A
C983        C984   1.411       .  A
C983       Br992   1.933       .  S
C984       Br988   1.930       .  S
C993        C994   1.410       .  A
C993        C998   1.409       .  A
C994        C995   1.405       .  A
C994      Br1006   1.931       .  S
C995        C996   1.409       .  A
C995      Br1010   1.930       .  S
C996        C999   1.484       .  S
C996        C997   1.410       .  A
C997        C998   1.408       .  A
C997      Br1005   1.929       .  S
C998      Br1009   1.929       .  S
C999       C1000   1.407       .  A
C999       C1004   1.408       .  A
C1000      C1001   1.408       .  A
C1000     Br1011   1.931       .  S
C1001      C1002   1.418       .  A
C1001     Br1007   1.935       .  S
C1002      C1003   1.413       .  A
C1003      C1004   1.407       .  A
C1003     Br1012   1.931       .  S
C1004     Br1008   1.931       .  S
C1013      C1014   1.415       .  A
C1013      C1018   1.415       .  A
C1014      C1015   1.406       .  A
C1014     Br1026   1.931       .  S
C1015      C1016   1.406       .  A
C1015     Br1030   1.931       .  S
C1016      C1019   1.480       .  S
C1016      C1017   1.407       .  A
C1017      C1018   1.408       .  A
C1017     Br1025   1.932       .  S
C1018     Br1029   1.931       .  S
C1019      C1020   1.408       .  A
C1019      C1024   1.407       .  A
C1020      C1021   1.408       .  A
C1020     Br1031   1.931       .  S
C1021      C1022   1.413       .  A
C1021     Br1027   1.930   1_556  S
C1022      C1023   1.411       .  A
C1023      C1024   1.405       .  A
C1023     Br1032   1.931       .  S
C1024     Br1028   1.930       .  S
C1033      C1034   1.411       .  A
C1033      C1038   1.411       .  A
C1034      C1035   1.406       .  A
C1034     Br1046   1.930       .  S
C1035      C1036   1.408       .  A
C1035     Br1050   1.931       .  S
C1036      C1039   1.481       .  S
C1036      C1037   1.408       .  A
C1037      C1038   1.406       .  A
C1037     Br1045   1.931       .  S
C1038     Br1049   1.930       .  S
C1039      C1040   1.406       .  A
C1039      C1044   1.406       .  A
C1040      C1041   1.406       .  A
C1040     Br1051   1.931       .  S
C1041      C1042   1.416       .  A
C1041     Br1047   1.934       .  S
C1042      C1043   1.418       .  A
C1043      C1044   1.408       .  A
C1043     Br1052   1.932   1_556  S
C1044     Br1048   1.932       .  S
C1053      C1054   1.415       .  A
C1053      C1058   1.415       .  A
C1054      C1055   1.408       .  A
C1054     Br1066   1.930       .  S
C1055      C1056   1.406       .  A
C1055     Br1070   1.930       .  S
C1056      C1059   1.484       .  S
C1056      C1057   1.408       .  A
C1057      C1058   1.409       .  A
C1057     Br1065   1.932       .  S
C1058     Br1069   1.932   1_455  S
C1059      C1060   1.407       .  A
C1059      C1064   1.406       .  A
C1060      C1061   1.409       .  A
C1060     Br1071   1.932       .  S
C1061      C1062   1.416       .  A
C1061     Br1067   1.931       .  S
C1062      C1063   1.418       .  A
C1063      C1064   1.408       .  A
C1063     Br1072   1.933       .  S
C1064     Br1068   1.931       .  S
C1073      C1074   1.413       .  A
C1073      C1078   1.415       .  A
C1074      C1075   1.409       .  A
C1074     Br1086   1.930       .  S
C1075      C1076   1.409       .  A
C1075     Br1090   1.930       .  S
C1076      C1079   1.489       .  S
C1076      C1077   1.409       .  A
C1077      C1078   1.410       .  A
C1077     Br1085   1.930       .  S
C1078     Br1089   1.932       .  S
C1079      C1080   1.407       .  A
C1079      C1084   1.409       .  A
C1080      C1081   1.408       .  A
C1080     Br1091   1.933       .  S
C1081      C1082   1.416       .  A
C1081     Br1087   1.931       .  S
C1082      C1083   1.414       .  A
C1083      C1084   1.412       .  A
C1083     Br1092   1.930       .  S
C1084     Br1088   1.929       .  S
C1093      C1094   1.412       .  A
C1093      C1098   1.409       .  A
C1094      C1095   1.407       .  A
C1094     Br1106   1.932       .  S
C1095      C1096   1.408       .  A
C1095     Br1110   1.929       .  S
C1096      C1099   1.481       .  S
C1096      C1097   1.409       .  A
C1097      C1098   1.405       .  A
C1097     Br1105   1.929       .  S
C1098     Br1109   1.928       .  S
C1099      C1100   1.407       .  A
C1099      C1104   1.406       .  A
C1100      C1101   1.410       .  A
C1100     Br1111   1.930       .  S
C1101      C1102   1.414       .  A
C1101     Br1107   1.929       .  S
C1102      C1103   1.416       .  A
C1103      C1104   1.406       .  A
C1103     Br1112   1.933       .  S
C1104     Br1108   1.933       .  S
