geometry optimzed in LAMMPS
_audit_creation_date              2020-11-30 
_audit_creation_method            'lammps2cif' 
_symmetry_space_group_name_H-M    'P1' 
_symmetry_Int_Tables_number       1 
_symmetry_cell_setting            triclinic 
loop_ 
_symmetry_equiv_pos_as_xyz 
  x,y,z 
_cell_length_a                    58.02205782 
_cell_length_b                    57.6214651552172 
_cell_length_c                    101.23573416683719 
_cell_angle_alpha                 90.237307581973 
_cell_angle_beta                  89.66712740021266 
_cell_angle_gamma                 125.33919804817482 
loop_ 
_atom_site_label 
_atom_site_type_symbol 
_atom_site_fract_x 
_atom_site_fract_y 
_atom_site_fract_z 
_atom_site_charge 
O1          O  0.03756207  0.81779281  0.32717300    -0.57000
C2          C  0.96126747  0.75215242  0.32672916     0.75600
O3          O  0.00143169  0.75260565  0.30092367    -0.58200
C4          C  0.06191531  0.82688341  0.32288265     0.75600
C5          C  0.02908612  0.74598353  0.34684991     0.78000
Cd6        Cd  0.01763150  0.76701798  0.32375823     1.37500
O7          O  0.98272521  0.77775260  0.32623318    -0.57000
O8          O  0.03153976  0.76922091  0.34672757    -0.55800
C9          C  0.02165676  0.75156929  0.29719296     0.77900
O10         O  0.02036754  0.73151770  0.33631060    -0.58200
O11         O  0.96576030  0.73314571  0.32586727    -0.56700
O12         O  0.06541602  0.80842915  0.31867782    -0.56600
O13         O  0.03927336  0.75603113  0.30592441    -0.55800
O14         O  0.97253905  0.76772485  0.17056933    -0.57000
C15         C  0.05231248  0.81603244  0.16510930     0.75600
O16         O  0.99072237  0.72193520  0.18597303    -0.58200
C17         C  0.95151773  0.74429590  0.16621887     0.75600
C18         C  0.02154025  0.73353170  0.14641041     0.78000
Cd19       Cd  0.00729462  0.75667675  0.16771635     1.37500
O20         O  0.02729120  0.80645545  0.16178921    -0.57000
O21         O  0.01265224  0.74871568  0.14436693    -0.55800
C22         C  0.00700923  0.74005909  0.19455096     0.77900
O23         O  0.02278178  0.72791167  0.15833568    -0.58200
O24         O  0.05642676  0.79817289  0.16949578    -0.56700
O25         O  0.95623260  0.72654275  0.16228267    -0.56600
O26         O  0.02400726  0.76537294  0.19060582    -0.55800
O27         O  0.26974086  0.09589392  0.16066829    -0.57000
C28         C  0.24743591  0.01609184  0.16914879     0.75600
O29         O  0.33779190  0.08167907  0.15785645    -0.58200
C30         C  0.29103302  0.12154989  0.16105827     0.75600
C31         C  0.31011390  0.08698750  0.19560981     0.78000
Cd32       Cd  0.29500527  0.07520913  0.16795449     1.37500
O33         O  0.24430897  0.03521718  0.16569132    -0.57000
O34         O  0.28756474  0.08207541  0.19092619    -0.55800
C35         C  0.32642938  0.07195488  0.14667999     0.77900
O36         O  0.32651528  0.08637538  0.18751451    -0.58200
O37         O  0.27218069  0.02431493  0.17218060    -0.56700
O38         O  0.31431864  0.12574954  0.16408257    -0.56600
O39         O  0.30169494  0.06545637  0.14532234    -0.55800
O40         O  0.26171373  0.03941518  0.32740661    -0.57000
C41         C  0.30215708  0.11868465  0.32883943     0.75600
O42         O  0.32440969  0.05210995  0.33822413    -0.58200
C43         C  0.26145262  0.01983365  0.32149431     0.75600
C44         C  0.33539488  0.08951501  0.29616780     0.78000
Cd45       Cd  0.31226179  0.07650298  0.32282631     1.37500
O46         O  0.28213524  0.09248844  0.32824219    -0.57000
O47         O  0.31289354  0.08690246  0.29927987    -0.55800
C48         C  0.33994556  0.07302701  0.34577451     0.77900
O49         O  0.34812711  0.08676039  0.30547189    -0.58200
O50         O  0.32687381  0.12532052  0.32687475    -0.56700
O51         O  0.28430854  0.02663706  0.31615225    -0.56600
O52         O  0.34448096  0.09637246  0.34230764    -0.55800
O53         O  0.28841533  0.29985203  0.33084196    -0.57000
C54         C  0.24118006  0.32274545  0.33033219     0.75600
O55         O  0.33075838  0.39683180  0.33917414    -0.58200
C56         C  0.31355130  0.30699283  0.33100056     0.75600
C57         C  0.31757713  0.37495352  0.30294913     0.78000
Cd58       Cd  0.30126747  0.34882014  0.32893260     1.37500
O59         O  0.25187983  0.31753511  0.32087483    -0.57000
O60         O  0.32714799  0.36172469  0.30752542    -0.55800
C61         C  0.32693172  0.38813023  0.35097576     0.77900
O62         O  0.30199553  0.37765056  0.31061215    -0.58200
O63         O  0.25797518  0.33902821  0.33929353    -0.56700
O64         O  0.33292330  0.33333546  0.33028556    -0.56600
O65         O  0.31266051  0.36148010  0.35255009    -0.55800
O66         O  0.30130400  0.31779746  0.16835410    -0.57000
C67         C  0.27054679  0.36592136  0.17200623     0.75600
O68         O  0.35708532  0.39341867  0.19089317    -0.58200
C69         C  0.32490912  0.32147892  0.16683182     0.75600
C70         C  0.34827597  0.40759075  0.15062281     0.78000
Cd71       Cd  0.32183862  0.36886491  0.17260385     1.37500
O72         O  0.26966901  0.34350895  0.17073288    -0.57000
O73         O  0.33037963  0.38105443  0.14917578    -0.55800
C74         C  0.33887106  0.38131329  0.20005054     0.77900
O75         O  0.35555636  0.41650173  0.16236562    -0.58200
O76         O  0.29466592  0.38895438  0.17352069    -0.56700
O77         O  0.34667468  0.34675320  0.16784867    -0.56600
O78         O  0.31353567  0.36382367  0.19647411    -0.55800
O79         O  0.04607448  0.30832183  0.18116049    -0.57000
C80         C  0.96921862  0.28655551  0.18147840     0.75600
O81         O  0.02251075  0.36898820  0.19393292    -0.58200
C82         C  0.07126529  0.32862291  0.17841271     0.75600
C83         C  0.03201587  0.35885044  0.15257398     0.78000
Cd84       Cd  0.02654762  0.33664897  0.17904041     1.37500
O85         O  0.99005689  0.28494572  0.18103479    -0.57000
O86         O  0.01845606  0.33262815  0.15511360    -0.55800
C87         C  0.03438218  0.36635536  0.20368199     0.77900
O88         O  0.04254278  0.37558855  0.16238023    -0.58200
O89         O  0.97480980  0.31124147  0.18090213    -0.56700
O90         O  0.07571152  0.35246774  0.17602123    -0.56600
O91         O  0.04322956  0.35106055  0.20185309    -0.55800
O92         O  0.99873049  0.30050971  0.33254902    -0.57000
C93         C  0.07636562  0.33951858  0.33804513     0.75600
O94         O  0.06461448  0.36524353  0.31051622    -0.58200
C95         C  0.97944932  0.30198194  0.32782361     0.75600
C96         C  0.03670257  0.38161434  0.35398248     0.78000
Cd97       Cd  0.03643658  0.35172641  0.33080763     1.37500
O98         O  0.05388823  0.32129975  0.33193123    -0.57000
O99         O  0.01932805  0.35514590  0.35233550    -0.55800
C100        C  0.05346620  0.37538801  0.30439510     0.77900
O101        O  0.05333362  0.39543607  0.34442982    -0.58200
O102        O  0.07987942  0.36271624  0.34099945    -0.56700
O103        O  0.98653612  0.32636793  0.32438292    -0.56600
O104        O  0.03518482  0.37644834  0.31070295    -0.55800
O105        O  0.75807469  0.01611752  0.31723162    -0.57000
C106        C  0.79524222  0.09419681  0.32669273     0.75600
O107        O  0.69967896  0.01581418  0.31148574    -0.58200
C108        C  0.74658979  0.99602933  0.32548963     0.75600
C109        C  0.71798951  0.04173564  0.35294804     0.78000
Cd110      Cd  0.73991497  0.04178775  0.32699561     1.37500
O111        O  0.79145666  0.07026586  0.32691407    -0.57000
O112        O  0.74380319  0.05318634  0.35058218    -0.55800
C113        C  0.71008694  0.03513449  0.30282492     0.77900
O114        O  0.70155283  0.03122873  0.34310680    -0.58200
O115        O  0.77331175  0.09407684  0.32635669    -0.56700
O116        O  0.73191869  0.99694603  0.33448372    -0.56600
O117        O  0.73279571  0.05859626  0.30587182    -0.55800
O118        O  0.77384740  0.05705817  0.17665703    -0.57000
C119        C  0.71781470  0.98185314  0.17216693     0.75600
O120        O  0.70442349  0.05241013  0.19081178    -0.58200
C121        C  0.78083041  0.08230205  0.17672413     0.75600
C122        C  0.70157250  0.03534409  0.14871120     0.78000
Cd123      Cd  0.72283079  0.03421405  0.17438916     1.37500
O124        O  0.74160119  0.00572532  0.17242264    -0.57000
O125        O  0.72747534  0.04795184  0.15119132    -0.55800
C126        C  0.70188700  0.03647546  0.20012004     0.77900
O127        O  0.68470515  0.02322643  0.15836870    -0.58200
O128        O  0.69617926  0.98209871  0.17299577    -0.56700
O129        O  0.76101537  0.08541272  0.17566143    -0.56600
O130        O  0.70694188  0.01848019  0.19723351    -0.55800
O131        O  0.78349993  0.78609753  0.17087055    -0.57000
C132        C  0.74556309  0.81867695  0.17300140     0.75600
O133        O  0.68778026  0.72334903  0.16441417    -0.58200
C134        C  0.78304526  0.76389000  0.17099027     0.75600
C135        C  0.71341158  0.74695841  0.20205680     0.78000
Cd136      Cd  0.73310388  0.76254873  0.17483015     1.37500
O137        O  0.76311092  0.81495378  0.17800897    -0.57000
O138        O  0.73090298  0.74284592  0.19721151    -0.55800
C139        C  0.69600608  0.73166337  0.15267106     0.77900
O140        O  0.70394394  0.75652421  0.19423066    -0.58200
O141        O  0.72278392  0.79672098  0.16879629    -0.56700
O142        O  0.75914369  0.74041827  0.17261441    -0.56600
O143        O  0.72152869  0.75247629  0.15124834    -0.55800
O144        O  0.76755986  0.74391507  0.33163780    -0.57000
C145        C  0.73404744  0.80906110  0.33178281     0.75600
O146        O  0.71152110  0.72190588  0.31504070    -0.58200
C147        C  0.79097556  0.76821258  0.33163041     0.75600
C148        C  0.71436667  0.74084989  0.35741315     0.78000
Cd149      Cd  0.73807728  0.76186926  0.33139669     1.37500
O150        O  0.75799451  0.81311239  0.33194828    -0.57000
O151        O  0.74054755  0.75781595  0.35524675    -0.55800
C152        C  0.71811361  0.73838270  0.30526342     0.77900
O153        O  0.69842785  0.73158653  0.34736175    -0.58200
O154        O  0.71254114  0.78356345  0.33134877    -0.56700
O155        O  0.78996114  0.78958989  0.33133537    -0.56600
O156        O  0.73285901  0.76472094  0.30775765    -0.55800
C157        C  0.45887521  0.37274721  0.95803943     0.87300
C158        C  0.48841581  0.40082138  0.95784952    -0.53000
C159        C  0.48875648  0.42437395  0.95590616     0.10200
C160        C  0.45907437  0.41759286  0.95429839     0.21200
C161        C  0.44267890  0.37698510  0.96878979    -0.53700
C162        C  0.44290333  0.40070276  0.96680878     0.10300
C163        C  0.44555647  0.37237877  0.94492538    -0.53200
C164        C  0.44554920  0.39585971  0.94296453     0.10900
H165        H  0.50763599  0.40205096  0.95932797     0.15400
H166        H  0.45886098  0.43648952  0.95267312     0.01100
H167        H  0.43301494  0.36312571  0.97730072     0.15700
H168        H  0.43646203  0.35477960  0.93799473     0.15500
C169        C  0.72707351  0.64307670  0.95437284     0.87300
C170        C  0.72832376  0.66010261  0.96642810    -0.53000
C171        C  0.70955617  0.66731793  0.96597387     0.10200
C172        C  0.69167928  0.65713240  0.95315914     0.21200
C173        C  0.69594505  0.61764912  0.95356295    -0.53700
C174        C  0.67731968  0.62489475  0.95300995     0.10300
C175        C  0.73158092  0.66134205  0.94235163    -0.53200
C176        C  0.71293600  0.66855977  0.94160122     0.10900
H177        H  0.74170328  0.66457408  0.97490149     0.15400
H178        H  0.67630678  0.66254881  0.95224078     0.01100
H179        H  0.68933255  0.59576077  0.95326345     0.15700
H180        H  0.74776413  0.66747154  0.93494414     0.15500
C181        C  0.31594621  0.47515040  0.03942444     0.87300
C182        C  0.34149667  0.50578153  0.03664112    -0.53000
C183        C  0.36713823  0.51014815  0.03830645     0.10200
C184        C  0.36461950  0.48288429  0.04225101     0.21200
C185        C  0.32018872  0.45656814  0.03025953    -0.53700
C186        C  0.34567669  0.46061997  0.03160550     0.10300
C187        C  0.32091227  0.46856276  0.05339097    -0.53200
C188        C  0.34645669  0.47261680  0.05486685     0.10900
H189        H  0.33943350  0.52271589  0.03391814     0.15400
H190        H  0.38493833  0.48562806  0.04369023     0.01100
H191        H  0.30438894  0.44152995  0.02323625     0.15700
H192        H  0.30523747  0.46061536  0.06122497     0.15500
C193        C  0.59999548  0.75214878  0.04747262     0.87300
C194        C  0.61779187  0.75244677  0.03614651    -0.53000
C195        C  0.61935549  0.72972311  0.03587022     0.10200
C196        C  0.60273248  0.70843444  0.04722895     0.21200
C197        C  0.57096174  0.72323653  0.04612520    -0.53700
C198        C  0.57240657  0.70027692  0.04598371     0.10300
C199        C  0.61270214  0.74909915  0.06005329    -0.53200
C200        C  0.61410068  0.72619420  0.05999109     0.10900
H201        H  0.62806892  0.76925393  0.02878363     0.15400
H202        H  0.60362943  0.68973308  0.04729614     0.01100
H203        H  0.55107572  0.72084897  0.04583180     0.15700
H204        H  0.62045819  0.76417834  0.06817736     0.15500
C205        C  0.13807817  0.48362679  0.04489723     0.87300
C206        C  0.11515909  0.46448514  0.03468668    -0.53000
C207        C  0.08958063  0.45989506  0.03718202     0.10200
C208        C  0.08927430  0.47434590  0.05002158     0.21200
C209        C  0.13890767  0.51081259  0.04536861    -0.53700
C210        C  0.11327389  0.50597849  0.04803928     0.10300
C211        C  0.12547804  0.46926776  0.05824452    -0.53200
C212        C  0.09986082  0.46423751  0.06103617     0.10900
H213        H  0.11913566  0.45614639  0.02600182     0.15400
H214        H  0.06854707  0.47033862  0.05236629     0.01100
H215        H  0.15823333  0.53179858  0.04382494     0.15700
H216        H  0.13672722  0.46471447  0.06507470     0.15500
C217        C  0.09106191  0.71143103  0.05394960     0.87300
C218        C  0.07601729  0.70561200  0.04070979    -0.53000
C219        C  0.09034699  0.70480290  0.03017478     0.10200
C220        C  0.11875652  0.71005670  0.03394002     0.21200
C221        C  0.09634377  0.68832812  0.05506944    -0.53700
C222        C  0.11080245  0.68741272  0.04454226     0.10300
C223        C  0.12036379  0.73924826  0.05188972    -0.53200
C224        C  0.13512137  0.73850318  0.04151444     0.10900
H225        H  0.05575108  0.70247433  0.03972672     0.15400
H226        H  0.13055259  0.70950649  0.02540212     0.01100
H227        H  0.08940392  0.67443080  0.06358050     0.15700
H228        H  0.12925474  0.75726486  0.05856919     0.15500
C229        C  0.93281393  0.37805012  0.94183045     0.87300
C230        C  0.93301019  0.40386502  0.93800227    -0.53000
C231        C  0.92059023  0.41111813  0.94704914     0.10200
C232        C  0.90884875  0.39128565  0.95930335     0.21200
C233        C  0.94683933  0.38562537  0.95538918    -0.53700
C234        C  0.93460799  0.39259079  0.96469861     0.10300
C235        C  0.90179266  0.35408272  0.94447382    -0.53200
C236        C  0.88888090  0.36074549  0.95354651     0.10900
H237        H  0.94276320  0.41580178  0.92895918     0.15400
H238        H  0.89865130  0.39664426  0.96682134     0.01100
H239        H  0.96584285  0.38667510  0.95719706     0.15700
H240        H  0.89074134  0.33390810  0.93923898     0.15500
C241        C  0.89573729  0.62050138  0.94916847     0.87300
C242        C  0.88513339  0.58916712  0.94785700    -0.53000
C243        C  0.90546173  0.58542559  0.94394313     0.10200
C244        C  0.93449399  0.61386004  0.94118843     0.21200
C245        C  0.92135667  0.63379092  0.95844671    -0.53700
C246        C  0.94161169  0.63019786  0.95430982     0.10300
C247        C  0.90849006  0.63385676  0.93572472    -0.53200
C248        C  0.92879000  0.63063825  0.93144950     0.10900
H249        H  0.86382720  0.57155972  0.95056120     0.15400
H250        H  0.95145107  0.61190089  0.93774782     0.01100
H251        H  0.92266380  0.64388746  0.96776343     0.15700
H252        H  0.90279527  0.64606259  0.93028343     0.15500
C253        C  0.43536608  0.17701128  0.95989568     0.87300
C254        C  0.41886783  0.15313620  0.97004285    -0.53000
C255        C  0.41936504  0.13004211  0.96789844     0.10200
C256        C  0.43629653  0.13288231  0.95537529     0.21200
C257        C  0.46519933  0.18394320  0.95983417    -0.53700
C258        C  0.46587519  0.16095122  0.95747818     0.10300
C259        C  0.42276992  0.16276421  0.94653867    -0.53200
C260        C  0.42350006  0.13984782  0.94394456     0.10900
H261        H  0.40804284  0.15461616  0.97845064     0.15400
H262        H  0.43651192  0.11410972  0.95327189     0.01100
H263        H  0.48416525  0.20527593  0.96131526     0.15700
H264        H  0.41406200  0.17035472  0.93976962     0.15500
C265        C  0.65871609  0.12706289  0.93621436     0.87300
C266        C  0.65513156  0.10832032  0.94793319    -0.53000
C267        C  0.65533625  0.11916745  0.96003105     0.10200
C268        C  0.65928301  0.14797955  0.95918238     0.21200
C269        C  0.63505116  0.13125623  0.93807160    -0.53700
C270        C  0.63515499  0.14211383  0.95014054     0.10300
C271        C  0.68609912  0.15644031  0.93896115    -0.53200
C272        C  0.68659664  0.16758923  0.95101473     0.10900
H273        H  0.65145119  0.08774743  0.94656544     0.15400
H274        H  0.65947878  0.15689080  0.96896839     0.01100
H275        H  0.61890958  0.12488120  0.93068889     0.15700
H276        H  0.70376019  0.16705269  0.93208297     0.15500
C277        C  0.57341871  0.91990179  0.04536326     0.87300
C278        C  0.54654528  0.91934984  0.04595116    -0.53000
C279        C  0.55186907  0.94581255  0.04679447     0.10200
C280        C  0.58355209  0.97022238  0.04699993     0.21200
C281        C  0.59037681  0.93936923  0.03364263    -0.53700
C282        C  0.59557835  0.96571203  0.03431718     0.10300
C283        C  0.59016593  0.93665274  0.05762817    -0.53200
C284        C  0.59559217  0.96304752  0.05857731     0.10900
H285        H  0.52539373  0.89983457  0.04536747     0.15400
H286        H  0.58779970  0.99153683  0.04799843     0.01100
H287        H  0.59700144  0.93253696  0.02532696     0.15700
H288        H  0.59606692  0.92769657  0.06518368     0.15500
C289        C  0.35031961  0.97265739  0.06606313     0.87300
C290        C  0.37441090  0.96943114  0.06838300    -0.53000
C291        C  0.38049697  0.95925406  0.05768726     0.10200
C292        C  0.36146985  0.95299582  0.04558995     0.21200
C293        C  0.35894554  0.99136096  0.05367353    -0.53700
C294        C  0.36486831  0.98115716  0.04288482     0.10300
C295        C  0.32544376  0.94307143  0.06163409    -0.53200
C296        C  0.33108590  0.93264021  0.05094137     0.10900
H297        H  0.38547692  0.97446506  0.07772545     0.15400
H298        H  0.36578061  0.94434406  0.03685413     0.01100
H299        H  0.36072055  0.01117230  0.05362920     0.15700
H300        H  0.30477626  0.93159056  0.06634085     0.15500
C301        C  0.46739817  0.19984909  0.53475811     0.87300
C302        C  0.49805122  0.20900627  0.53622980    -0.53000
C303        C  0.50024092  0.18714217  0.53905386     0.10200
C304        C  0.47134328  0.15820056  0.54058051     0.21200
C305        C  0.45430528  0.17592664  0.52432160    -0.53700
C306        C  0.45661478  0.15414671  0.52732015     0.10300
C307        C  0.45269414  0.18471772  0.54773200    -0.53200
C308        C  0.45476894  0.16296214  0.55090504     0.10900
H309        H  0.51637360  0.23069266  0.53466296     0.15400
H310        H  0.47247797  0.14022058  0.54321185     0.01100
H311        H  0.44573529  0.17712575  0.51505405     0.15700
H312        H  0.44229780  0.19137888  0.55402414     0.15500
C313        C  0.67791956  0.13758078  0.56948014     0.87300
C314        C  0.65437657  0.14184804  0.56788304    -0.53000
C315        C  0.65509972  0.15413586  0.55626391     0.10200
C316        C  0.68016688  0.16167755  0.54723243     0.21200
C317        C  0.67532709  0.12048576  0.55723398    -0.53700
C318        C  0.67666517  0.13305835  0.54553147     0.10300
C319        C  0.70546675  0.16719793  0.56750568    -0.53200
C320        C  0.70677166  0.18004858  0.55591519     0.10900
H321        H  0.63771699  0.13466124  0.57516834     0.15400
H322        H  0.68118351  0.17177988  0.53773059     0.01100
H323        H  0.67290738  0.10036058  0.55777129     0.15700
H324        H  0.72211138  0.17748199  0.57485708     0.15500
C325        C  0.60502515  0.93969860  0.46304631     0.87300
C326        C  0.62081432  0.96625593  0.47194782    -0.53000
C327        C  0.61842736  0.98751029  0.46802001     0.10200
C328        C  0.60104497  0.98031744  0.45528981     0.21200
C329        C  0.57445290  0.93106966  0.46263479    -0.53700
C330        C  0.57219850  0.95232682  0.45861684     0.10300
C331        C  0.61679910  0.95072136  0.44914562    -0.53200
C332        C  0.61481466  0.97204028  0.44497298     0.10900
H333        H  0.63096372  0.96707516  0.48108062     0.15400
H334        H  0.60015604  0.99797966  0.45181561     0.01100
H335        H  0.55624785  0.91007008  0.46541434     0.15700
H336        H  0.62518131  0.94163408  0.44306999     0.15500
C337        C  0.38764013  0.99676135  0.42755750     0.87300
C338        C  0.39445403  0.01654374  0.43931765    -0.53000
C339        C  0.39673191  0.00638834  0.45106332     0.10200
C340        C  0.39230225  0.97726410  0.44986581     0.21200
C341        C  0.41115401  0.99218353  0.42757911    -0.53700
C342        C  0.41390383  0.98212564  0.43920932     0.10300
C343        C  0.36084902  0.96792653  0.43158127    -0.53200
C344        C  0.36318218  0.95747158  0.44323217     0.10900
H345        H  0.39662662  0.03650592  0.43846178     0.15400
H346        H  0.39416553  0.96914083  0.45942596     0.01100
H347        H  0.42506805  0.99726182  0.41918156     0.15700
H348        H  0.34215264  0.95629196  0.42541117     0.15500
C349        C  0.45674780  0.37705535  0.54417514     0.87300
C350        C  0.44154572  0.37880051  0.53222088    -0.53000
C351        C  0.44188269  0.40275885  0.53196823     0.10200
C352        C  0.45757833  0.42284456  0.54381193     0.21200
C353        C  0.48662904  0.40477209  0.54371881    -0.53700
C354        C  0.48721235  0.42892432  0.54355524     0.10300
C355        C  0.44283381  0.38041986  0.55630633    -0.53200
C356        C  0.44327607  0.40439004  0.55617903     0.10900
H357        H  0.43165364  0.36263309  0.52455972     0.15400
H358        H  0.45828488  0.44250161  0.54378642     0.01100
H359        H  0.50535704  0.40486269  0.54337012     0.15700
H360        H  0.43315916  0.36494567  0.56425877     0.15500
C361        C  0.74862387  0.64160750  0.53583757     0.87300
C362        C  0.72211897  0.61130910  0.53793525    -0.53000
C363        C  0.69811475  0.60981829  0.54042707     0.10200
C364        C  0.70306276  0.63926219  0.54073813     0.21200
C365        C  0.74069545  0.65376886  0.52476462    -0.53700
C366        C  0.71698585  0.65280879  0.52722470     0.10300
C367        C  0.75074603  0.65808852  0.54820600    -0.53200
C368        C  0.72694473  0.65675512  0.55093683     0.10900
H369        H  0.72230774  0.59258773  0.53735236     0.15400
H370        H  0.68392161  0.63845503  0.54291194     0.01100
H371        H  0.75285481  0.66243509  0.51568649     0.15700
H372        H  0.76953980  0.66979089  0.55432228     0.15500
C373        C  0.32901170  0.49675189  0.45890589     0.87300
C374        C  0.33183004  0.48128028  0.47040744    -0.53000
C375        C  0.35365372  0.47848614  0.46902306     0.10200
C376        C  0.37065243  0.49165883  0.45601743     0.21200
C377        C  0.35810923  0.52511062  0.45776262    -0.53700
C378        C  0.37996031  0.52272165  0.45627712     0.10300
C379        C  0.32664337  0.48019697  0.44648271    -0.53200
C380        C  0.34855878  0.47764245  0.44483430     0.10900
H381        H  0.31813670  0.47379560  0.47904147     0.15400
H382        H  0.38842292  0.48982857  0.45443974     0.01100
H383        H  0.36122277  0.54562119  0.45791258     0.15700
H384        H  0.30916198  0.47148782  0.43963584     0.15500
C385        C  0.60406738  0.75523066  0.46141741     0.87300
C386        C  0.57786558  0.72437919  0.46032128    -0.53000
C387        C  0.58379251  0.70499132  0.45785464     0.10200
C388        C  0.61553868  0.71830723  0.45671850     0.21200
C389        C  0.62210408  0.75433045  0.47216370    -0.53700
C390        C  0.62804298  0.73482266  0.46988215     0.10300
C391        C  0.62022592  0.76054005  0.44849912    -0.53200
C392        C  0.62617252  0.74126470  0.44585590     0.10900
H393        H  0.55650499  0.71839691  0.46169558     0.15400
H394        H  0.61955429  0.70214784  0.45453195     0.01100
H395        H  0.62857885  0.76718305  0.48107475     0.15700
H396        H  0.62531795  0.77742099  0.44167903     0.15500
C397        C  0.14578036  0.49478105  0.46130483     0.87300
C398        C  0.15637546  0.52616280  0.46162260    -0.53000
C399        C  0.13651326  0.53068282  0.45818277     0.10200
C400        C  0.10749429  0.50287892  0.45480831     0.21200
C401        C  0.11981491  0.47960305  0.47042944    -0.53700
C402        C  0.09958757  0.48374079  0.46705019     0.10300
C403        C  0.13380557  0.48425676  0.44741462    -0.53200
C404        C  0.11368762  0.48835102  0.44393542     0.10900
H405        H  0.17777368  0.54331532  0.46440004     0.15400
H406        H  0.09075093  0.50564396  0.45208132     0.01100
H407        H  0.11810960  0.46737439  0.47897254     0.15700
H408        H  0.14104968  0.47472243  0.44086180     0.15500
C409        C  0.12700915  0.74328590  0.43267457     0.87300
C410        C  0.13007553  0.71876065  0.43113656    -0.53000
C411        C  0.13930628  0.71306985  0.44225132     0.10200
C412        C  0.14523297  0.73334954  0.45395713     0.21200
C413        C  0.10775017  0.73545381  0.44473171    -0.53700
C414        C  0.11702525  0.73000536  0.45587977     0.10300
C415        C  0.15615200  0.76854487  0.43712038    -0.53200
C416        C  0.16588831  0.76360674  0.44821869     0.10900
H417        H  0.12464359  0.70642952  0.42209644     0.15400
H418        H  0.15303523  0.72948237  0.46307374     0.01100
H419        H  0.08833587  0.73418770  0.44443283     0.15700
H420        H  0.16797776  0.78892718  0.43206321     0.15500
C421        C  0.95674556  0.38428867  0.56964869     0.87300
C422        C  0.97127281  0.38564222  0.55668003    -0.53000
C423        C  0.96079827  0.39007891  0.54573575     0.10200
C424        C  0.93589124  0.39207452  0.54871310     0.21200
C425        C  0.95865185  0.41192500  0.56998247    -0.53700
C426        C  0.94773807  0.41623787  0.55908374     0.10300
C427        C  0.92537910  0.36070121  0.56745383    -0.53200
C428        C  0.91429964  0.36459138  0.55646525     0.10900
H429        H  0.98901813  0.38402729  0.55620980     0.15400
H430        H  0.92675394  0.39471961  0.53975822     0.01100
H431        H  0.96804846  0.42691967  0.57813918     0.15700
H432        H  0.91334080  0.34209444  0.57375994     0.15500
C433        C  0.91204445  0.61333597  0.53635658     0.87300
C434        C  0.93542325  0.62981493  0.52589463    -0.53000
C435        C  0.95876746  0.62995768  0.52820544     0.10200
C436        C  0.95657813  0.61388831  0.54079748     0.21200
C437        C  0.90600254  0.58362360  0.53664410    -0.53700
C438        C  0.92916488  0.58365306  0.53899688     0.10300
C439        C  0.92632978  0.62683857  0.54956963    -0.53200
C440        C  0.94974970  0.62732828  0.55195065     0.10900
H441        H  0.93316386  0.63935729  0.51722236     0.15400
H442        H  0.97590471  0.61480680  0.54262591     0.01100
H443        H  0.88511793  0.56415205  0.53510667     0.15700
H444        H  0.91892107  0.63600296  0.55627087     0.15500
O445        O  0.03623621  0.81824124  0.66121024    -0.57000
C446        C  0.96196228  0.76614579  0.66002390     0.75600
O447        O  0.00306434  0.72190003  0.65537726    -0.58200
C448        C  0.06091465  0.82425819  0.66111677     0.75600
C449        C  0.00742894  0.74723141  0.69043583     0.78000
Cd450      Cd  0.01145633  0.76669298  0.66364314     1.37500
O451        O  0.97821963  0.77859561  0.66977117    -0.57000
O452        O  0.03105230  0.76656187  0.68547897    -0.55800
C453        C  0.00859797  0.72950712  0.64341110     0.77900
O454        O  0.98636213  0.73598389  0.68285035    -0.58200
O455        O  0.96901368  0.75476583  0.65178746    -0.56700
O456        O  0.06293941  0.80355474  0.66186529    -0.56600
O457        O  0.01738873  0.75488183  0.64092957    -0.55800
O458        O  0.05000349  0.80714441  0.83212812    -0.57000
C459        C  0.97760250  0.77372309  0.81997079     0.75600
O460        O  0.00335107  0.74899340  0.79755795    -0.58200
C461        C  0.07237118  0.81510513  0.82586973     0.75600
C462        C  0.00568142  0.71949273  0.84112564     0.78000
Cd463      Cd  0.01925790  0.76127131  0.82057231     1.37500
O464        O  0.00254877  0.79118835  0.81584048    -0.57000
O465        O  0.02412530  0.74586912  0.84264801    -0.55800
C466        C  0.02272558  0.74686923  0.79354174     0.77900
O467        O  0.99414050  0.71191513  0.82988921    -0.58200
O468        O  0.97179367  0.75049384  0.82455919    -0.56700
O469        O  0.07062741  0.79767346  0.81755872    -0.56600
O470        O  0.03958568  0.74926836  0.80222901    -0.55800
O471        O  0.26165998  0.03548822  0.66292711    -0.57000
C472        C  0.29977442  0.11525097  0.66503171     0.75600
O473        O  0.35045571  0.09776434  0.68166267    -0.58200
C474        C  0.26430880  0.01513171  0.66317999     0.75600
C475        C  0.33797648  0.07827846  0.63901130     0.78000
Cd476      Cd  0.31232546  0.07325798  0.66461048     1.37500
O477        O  0.28244779  0.09037603  0.66942585    -0.57000
O478        O  0.31215181  0.06781338  0.64067733    -0.55800
C479        C  0.33708015  0.07912292  0.69055003     0.77900
O480        O  0.35291141  0.08601896  0.64937251    -0.58200
O481        O  0.32277840  0.12074606  0.66050306    -0.56700
O482        O  0.28920641  0.02168829  0.66401817    -0.56600
O483        O  0.31335622  0.05720374  0.68723777    -0.55800
O484        O  0.27014069  0.02969524  0.82199913    -0.57000
C485        C  0.30872630  0.11004707  0.82436344     0.75600
O486        O  0.36807739  0.09512625  0.83326243    -0.58200
C487        C  0.27305935  0.00954796  0.82202410     0.75600
C488        C  0.33876825  0.06993453  0.79403221     0.78000
Cd489      Cd  0.32146359  0.06863165  0.82141648     1.37500
O490        O  0.29090378  0.08424983  0.82750528    -0.57000
O491        O  0.32506384  0.07984455  0.79745647    -0.55800
C492        C  0.35806414  0.08485321  0.84458813     0.77900
O493        O  0.34599651  0.06071641  0.80329305    -0.58200
O494        O  0.33205361  0.11649136  0.81971323    -0.56700
O495        O  0.29816250  0.01663247  0.82205634    -0.56600
O496        O  0.33173854  0.06593625  0.84507576    -0.55800
O497        O  0.26553524  0.33529931  0.66344128    -0.57000
C498        C  0.31797598  0.30656614  0.66573447     0.75600
O499        O  0.36151719  0.39469092  0.66025282    -0.58200
C500        C  0.26819937  0.35838154  0.66584285     0.75600
C501        C  0.31649072  0.35681498  0.69751971     0.78000
Cd502      Cd  0.31495602  0.35431242  0.66906081     1.37500
O503        O  0.29544203  0.30431433  0.66294933    -0.57000
O504        O  0.29895974  0.33474748  0.69098938    -0.55800
C505        C  0.35418663  0.38904808  0.64822106     0.77900
O506        O  0.33462495  0.37882912  0.69092495    -0.58200
O507        O  0.33859073  0.33058223  0.66976663    -0.56700
O508        O  0.29256286  0.37955410  0.66907815    -0.56600
O509        O  0.32871504  0.36876110  0.64603544    -0.55800
O510        O  0.27207376  0.32681481  0.83197820    -0.57000
C511        C  0.32624715  0.30250321  0.82527792     0.75600
O512        O  0.34914590  0.38669514  0.80950802    -0.58200
C513        C  0.27440191  0.34979911  0.83407795     0.75600
C514        C  0.35968394  0.37745917  0.84977641     0.78000
Cd515      Cd  0.32300779  0.35048855  0.82731448     1.37500
O516        O  0.30357117  0.29899555  0.82908867    -0.57000
O517        O  0.33415972  0.35638456  0.85093068    -0.55800
C518        C  0.33261879  0.37072559  0.80036181     0.77900
O519        O  0.36824705  0.38709800  0.83821323    -0.58200
O520        O  0.34657238  0.32758022  0.82235668    -0.56700
O521        O  0.29894411  0.37263508  0.83316298    -0.56600
O522        O  0.31190151  0.34613598  0.80376330    -0.55800
O523        O  0.04627575  0.29614083  0.68273261    -0.57000
C524        C  0.97077488  0.25952382  0.67631121     0.75600
O525        O  0.03962264  0.33909510  0.70393947    -0.58200
C526        C  0.06922847  0.31774324  0.67838119     0.75600
C527        C  0.01280677  0.34953975  0.66277206     0.78000
Cd528      Cd  0.01908146  0.31662703  0.68205474     1.37500
O529        O  0.98065942  0.26652370  0.68788436    -0.57000
O530        O  0.02133091  0.33432925  0.65988297    -0.55800
C531        C  0.01656117  0.33268962  0.70894063     0.77900
O532        O  0.00927999  0.35177238  0.67494036    -0.58200
O533        O  0.98337838  0.27850273  0.66757854    -0.56700
O534        O  0.06952584  0.33947667  0.67596281    -0.56600
O535        O  0.99536524  0.32038138  0.70138447    -0.55800
O536        O  0.05077166  0.28770370  0.83591325    -0.57000
C537        C  0.97372065  0.25558444  0.83795030     0.75600
O538        O  0.01871311  0.34660085  0.84657017    -0.58200
C539        C  0.07400443  0.30774702  0.84076282     0.75600
C540        C  0.03576301  0.33473337  0.81154822     0.78000
Cd541      Cd  0.02627240  0.31108315  0.83782996     1.37500
O542        O  0.99420942  0.26139291  0.84512314    -0.57000
O543        O  0.01421638  0.31031188  0.81454549    -0.55800
C544        C  0.01319715  0.33739451  0.85828845     0.77900
O545        O  0.05312994  0.34878826  0.82076532    -0.58200
O546        O  0.97769379  0.27525716  0.83054701    -0.56700
O547        O  0.07530387  0.32941849  0.84461677    -0.56600
O548        O  0.01557588  0.31741006  0.86079331    -0.55800
O549        O  0.72801758  0.99603556  0.67354980    -0.57000
C550        C  0.77157061  0.06788355  0.68071205     0.75600
O551        O  0.70918805  0.05902065  0.66158145    -0.58200
C552        C  0.70365329  0.97309147  0.67217143     0.75600
C553        C  0.68427591  0.02598164  0.70087647     0.78000
Cd554      Cd  0.71168298  0.02664027  0.67665890     1.37500
O555        O  0.75469376  0.05483013  0.69022271    -0.57000
O556        O  0.68624486  0.00592077  0.69779633    -0.55800
C557        C  0.69437067  0.04045531  0.65286007     0.77900
O558        O  0.69267262  0.04521034  0.69229532    -0.58200
O559        O  0.76102830  0.06129261  0.66924958    -0.56700
O560        O  0.68293720  0.97487503  0.67280763    -0.56600
O561        O  0.68614660  0.01533906  0.65546515    -0.55800
O562        O  0.73033235  0.00005858  0.82745727    -0.57000
C563        C  0.76341817  0.07993177  0.82723108     0.75600
O564        O  0.66713417  0.00793015  0.81360725    -0.58200
C565        C  0.70757558  0.97584667  0.82960742     0.75600
C566        C  0.69065182  0.03576287  0.85376540     0.78000
Cd567      Cd  0.70874692  0.02651817  0.82867298     1.37500
O568        O  0.76033011  0.05809495  0.83214428    -0.57000
O569        O  0.69989723  0.02070083  0.85265263    -0.55800
C570        C  0.68208813  0.01796931  0.80321744     0.77900
O571        O  0.68776517  0.04529024  0.84311705    -0.58200
O572        O  0.74143631  0.07692181  0.82292876    -0.56700
O573        O  0.68554851  0.97511345  0.83133071    -0.56600
O574        O  0.70849880  0.03191699  0.80476191    -0.55800
O575        O  0.78075907  0.78941175  0.66901306    -0.57000
C576        C  0.73315769  0.81038670  0.66351671     0.75600
O577        O  0.69791068  0.71394154  0.65258204    -0.58200
C578        C  0.78446393  0.76996271  0.66758057     0.75600
C579        C  0.70460547  0.73966523  0.69174377     0.78000
Cd580      Cd  0.72928631  0.75851901  0.66564045     1.37500
O581        O  0.75486716  0.81022948  0.66317958    -0.57000
O582        O  0.69357211  0.74601510  0.68307062    -0.55800
C583        C  0.70622278  0.72594659  0.64142283     0.77900
O584        O  0.72521592  0.73929817  0.68801904    -0.58200
O585        O  0.70949498  0.78645624  0.66439145    -0.56700
O586        O  0.76265450  0.74514806  0.66534867    -0.56600
O587        O  0.72365296  0.75269286  0.64154700    -0.55800
O588        O  0.77079368  0.82172979  0.82046646    -0.57000
C589        C  0.79267633  0.76489747  0.81933811     0.75600
O590        O  0.70974942  0.73046210  0.83485011    -0.58200
C591        C  0.74888574  0.82126424  0.82217723     0.75600
C592        C  0.72194170  0.74899866  0.79424570     0.78000
Cd593      Cd  0.74586184  0.76958896  0.82028673     1.37500
O594        O  0.79679140  0.78865953  0.82165713    -0.57000
O595        O  0.74449667  0.77342712  0.79614993    -0.55800
C596        C  0.72295835  0.74180612  0.84551966     0.77900
O597        O  0.70961180  0.73405060  0.80444398    -0.58200
O598        O  0.76753966  0.74415267  0.81711851    -0.56700
O599        O  0.72556807  0.79695171  0.82298356    -0.56600
O600        O  0.74566101  0.76649621  0.84460734    -0.55800
C601        C  0.71261809  0.74590120  0.75644463     0.19500
C602        C  0.71235002  0.76390978  0.74726204    -0.18600
C603        C  0.70830388  0.75703135  0.73382390    -0.10900
C604        C  0.70508342  0.73224024  0.72923922     0.21700
C605        C  0.70497265  0.71399985  0.73843022    -0.20200
C606        C  0.70834905  0.72055266  0.75194305    -0.11100
C607        C  0.70617965  0.72751663  0.71489101    -0.15200
C608        C  0.69547631  0.73552590  0.70568933    -0.29100
C609        C  0.72057312  0.75574162  0.77032041    -0.03400
C610        C  0.71105727  0.73815449  0.78079731    -0.39900
H611        H  0.71601932  0.78374036  0.75046284     0.12900
H612        H  0.70938688  0.77200516  0.72696129     0.12500
H613        H  0.70308520  0.69508485  0.73509914     0.11900
H614        H  0.70916066  0.70658411  0.75873888     0.12200
H615        H  0.71813344  0.71926874  0.71180447     0.14900
H616        H  0.68218913  0.74229381  0.70866381     0.13700
H617        H  0.73482337  0.77854872  0.77195795     0.11400
H618        H  0.69532571  0.71547939  0.77949361     0.13400
C619        C  0.72828610  0.92307619  0.82791168     0.19500
C620        C  0.75319935  0.92508619  0.83030305    -0.18600
C621        C  0.75345580  0.90096455  0.82958242    -0.10900
C622        C  0.72876850  0.87426957  0.82626909     0.21700
C623        C  0.70381043  0.87223447  0.82401739    -0.20200
C624        C  0.70355613  0.89632505  0.82472630    -0.11100
C625        C  0.72788418  0.84796875  0.82527359    -0.15200
C626        C  0.75082151  0.84793477  0.82320868    -0.29100
C627        C  0.72924753  0.94946356  0.82823946    -0.03400
C628        C  0.70623347  0.94948820  0.82997559    -0.39900
H629        H  0.77251576  0.94538094  0.83278688     0.12900
H630        H  0.77295464  0.90337873  0.83177822     0.12500
H631        H  0.68450633  0.85198135  0.82146614     0.11900
H632        H  0.68407726  0.89387813  0.82244053     0.12200
H633        H  0.70728033  0.82771969  0.82583769     0.14900
H634        H  0.77154417  0.86773877  0.82205701     0.13700
H635        H  0.74974563  0.96964947  0.82714203     0.11400
H636        H  0.68572134  0.92979865  0.83174368     0.13400
C637        C  0.71589369  0.86563447  0.66588466     0.19500
C638        C  0.69174070  0.86514391  0.66373413    -0.18600
C639        C  0.69294834  0.89005807  0.66476633    -0.10900
C640        C  0.71841240  0.91604002  0.66817182     0.21700
C641        C  0.74250948  0.91643818  0.67033398    -0.20200
C642        C  0.74129593  0.89158576  0.66929001    -0.11100
C643        C  0.72114726  0.94325490  0.66964410    -0.15200
C644        C  0.69929649  0.94546923  0.67004535    -0.29100
C645        C  0.71349853  0.83854138  0.66507010    -0.03400
C646        C  0.73580472  0.83738804  0.66320150    -0.39900
H647        H  0.67187868  0.84542213  0.66117886     0.12900
H648        H  0.67390593  0.88865181  0.66279843     0.12500
H649        H  0.76234528  0.93603171  0.67303552     0.11900
H650        H  0.76020130  0.89284241  0.67148309     0.12200
H651        H  0.74236275  0.96247718  0.67088230     0.14900
H652        H  0.67771057  0.92690059  0.66917882     0.13700
H653        H  0.69255473  0.81880471  0.66603880     0.11400
H654        H  0.75680495  0.85664929  0.66172364     0.13400
C655        C  0.67685157  0.02402591  0.76555254     0.19500
C656        C  0.69166577  0.04681216  0.75665847    -0.18600
C657        C  0.68732533  0.04233380  0.74305931    -0.10900
C658        C  0.66823511  0.01476919  0.73798402     0.21700
C659        C  0.65270244  0.99202980  0.74689369    -0.20200
C660        C  0.65675395  0.99660567  0.76056852    -0.11100
C661        C  0.66771554  0.00879303  0.72362646    -0.15200
C662        C  0.67510032  0.02833980  0.71416157    -0.29100
C663        C  0.68589305  0.02924061  0.77959893    -0.03400
C664        C  0.66966109  0.01318640  0.78988696    -0.39900
H665        H  0.70753730  0.06805696  0.76022224     0.12900
H666        H  0.70038002  0.06028692  0.73655242     0.12500
H667        H  0.63824040  0.97053617  0.74324067     0.11900
H668        H  0.64543748  0.97844604  0.76712034     0.12200
H669        H  0.66373230  0.98850571  0.72089912     0.14900
H670        H  0.67778032  0.04813155  0.71660308     0.13700
H671        H  0.70749764  0.04723243  0.78152460     0.11400
H672        H  0.64747919  0.99621244  0.78850516     0.13400
C673        C  0.89596418  0.19324682  0.83198882     0.19500
C674        C  0.87637200  0.18676008  0.82202145    -0.18600
C675        C  0.84977248  0.16074275  0.82197758    -0.10900
C676        C  0.84205140  0.14070184  0.83205812     0.21700
C677        C  0.86159589  0.14718144  0.84203302    -0.20200
C678        C  0.88816590  0.17321860  0.84209567    -0.11100
C679        C  0.81415100  0.11266735  0.83237311    -0.15200
C680        C  0.79101535  0.10771930  0.82646937    -0.29100
C681        C  0.92391485  0.22127970  0.83160599    -0.03400
C682        C  0.94661917  0.22728606  0.83840441    -0.39900
H683        H  0.88178966  0.20178979  0.81412506     0.12900
H684        H  0.83565110  0.15630593  0.81390764     0.12500
H685        H  0.85614610  0.13214225  0.84992365     0.11900
H686        H  0.90216476  0.17755525  0.85019947     0.12200
H687        H  0.81231396  0.09580172  0.83815315     0.14900
H688        H  0.79181070  0.12463933  0.82131980     0.13700
H689        H  0.92600870  0.23757378  0.82524019     0.11400
H690        H  0.94565271  0.21134094  0.84451711     0.13400
C691        C  0.84888143  0.13152548  0.67532043     0.19500
C692        C  0.86166159  0.15193999  0.66524877    -0.18600
C693        C  0.88803761  0.17762988  0.66713970    -0.10900
C694        C  0.90255393  0.18333730  0.67916262     0.21700
C695        C  0.89018827  0.16244485  0.68906134    -0.20200
C696        C  0.86373755  0.13675522  0.68717063    -0.11100
C697        C  0.92965563  0.21119672  0.68209660    -0.15200
C698        C  0.94561453  0.23110282  0.67291316    -0.29100
C699        C  0.81969640  0.10577994  0.67319281    -0.03400
C700        C  0.80171252  0.09024687  0.68309220    -0.39900
H701        H  0.85072891  0.14843807  0.65601148     0.12900
H702        H  0.89623909  0.19308167  0.65927327     0.12500
H703        H  0.90089645  0.16614867  0.69838269     0.11900
H704        H  0.85508552  0.12123989  0.69504156     0.12200
H705        H  0.93647625  0.21574305  0.69233374     0.14900
H706        H  0.94000410  0.22717592  0.66256285     0.13700
H707        H  0.81187235  0.10093650  0.66310757     0.11400
H708        H  0.80841897  0.09525311  0.69330380     0.13400
C709        C  0.02509587  0.33996394  0.77430556     0.19500
C710        C  0.00118154  0.32826781  0.76626804    -0.18600
C711        C  0.00382487  0.33153711  0.75254576    -0.10900
C712        C  0.03066267  0.34662750  0.74646207     0.21700
C713        C  0.05465263  0.35931433  0.75457118    -0.20200
C714        C  0.05198378  0.35607469  0.76832643    -0.11100
C715        C  0.03449510  0.34699577  0.73182738    -0.15200
C716        C  0.01361647  0.33781345  0.72297806    -0.29100
C717        C  0.02080406  0.33219307  0.78855999    -0.03400
C718        C  0.04076434  0.34595947  0.79793459    -0.39900
H719        H  0.98020312  0.31563143  0.77059530     0.12900
H720        H  0.98462236  0.32094736  0.74684618     0.12500
H721        H  0.07558022  0.37089458  0.75020771     0.11900
H722        H  0.07096123  0.36500442  0.77410057     0.12200
H723        H  0.05511276  0.35348435  0.72823265     0.14900
H724        H  0.99296464  0.33182594  0.72609483     0.13700
H725        H  0.00010594  0.31364093  0.79142567     0.11400
H726        H  0.06118836  0.36539615  0.79564491     0.13400
C727        C  0.14964676  0.32758984  0.84332357     0.19500
C728        C  0.17558981  0.35274892  0.83987499    -0.18600
C729        C  0.19960578  0.35301228  0.83799115    -0.10900
C730        C  0.19839020  0.32810022  0.83983981     0.21700
C731        C  0.17248307  0.30298477  0.84351203    -0.20200
C732        C  0.14834695  0.30268546  0.84528314    -0.11100
C733        C  0.22326899  0.32724908  0.83747430    -0.15200
C734        C  0.25008181  0.35064396  0.83727898    -0.29100
C735        C  0.12442326  0.32815239  0.84447912    -0.03400
C736        C  0.09818753  0.30568809  0.84148648    -0.39900
H737        H  0.17710332  0.37217133  0.83823599     0.12900
H738        H  0.21874249  0.37264316  0.83474459     0.12500
H739        H  0.17089624  0.28348586  0.84499278     0.11900
H740        H  0.12881184  0.28302892  0.84823040     0.12200
H741        H  0.21935136  0.30658474  0.83585707     0.14900
H742        H  0.25475024  0.37140704  0.83939047     0.13700
H743        H  0.12792196  0.34846878  0.84662549     0.11400
H744        H  0.09456618  0.28572802  0.83846585     0.13400
C745        C  0.19228514  0.33891812  0.66475681     0.19500
C746        C  0.16555057  0.31301595  0.66599192    -0.18600
C747        C  0.14130308  0.31243694  0.66777278    -0.10900
C748        C  0.14322405  0.33792311  0.66840215     0.21700
C749        C  0.16980109  0.36378891  0.66669420    -0.20200
C750        C  0.19408367  0.36438476  0.66490698    -0.11100
C751        C  0.11806991  0.33841160  0.67057123    -0.15200
C752        C  0.09398108  0.31695891  0.67627592    -0.29100
C753        C  0.21747465  0.33816743  0.66348254    -0.03400
C754        C  0.24425278  0.36083154  0.66541080    -0.39900
H755        H  0.16340686  0.29304154  0.66571241     0.12900
H756        H  0.12117257  0.29194967  0.66850868     0.12500
H757        H  0.17185111  0.38372280  0.66688771     0.11900
H758        H  0.21399337  0.38482821  0.66358316     0.12200
H759        H  0.11978685  0.35754423  0.66775838     0.14900
H760        H  0.09202673  0.29803638  0.67960669     0.13700
H761        H  0.21363837  0.31757715  0.66172463     0.11400
H762        H  0.24890382  0.38150507  0.66771812     0.13400
C763        C  0.32291409  0.36950223  0.76253021     0.19500
C764        C  0.29912905  0.35411325  0.75434846    -0.18600
C765        C  0.30181477  0.35720286  0.74064074    -0.10900
C766        C  0.32854570  0.37553539  0.73470886     0.21700
C767        C  0.35229068  0.39169662  0.74287896    -0.20200
C768        C  0.34959046  0.38861997  0.75666048    -0.11100
C769        C  0.33205086  0.37792586  0.72006812    -0.15200
C770        C  0.31467019  0.35583135  0.71207250    -0.29100
C771        C  0.31891210  0.36322331  0.77694024    -0.03400
C772        C  0.33755608  0.38002127  0.78639568    -0.39900
H773        H  0.27831302  0.33937357  0.75858282     0.12900
H774        H  0.28284818  0.34517289  0.73473460     0.12500
H775        H  0.37307364  0.40608489  0.73856879     0.11900
H776        H  0.36852269  0.40053051  0.76258607     0.12200
H777        H  0.34974463  0.39769116  0.71585106     0.14900
H778        H  0.29803871  0.33554430  0.71633003     0.13700
H779        H  0.29935944  0.34340130  0.77990883     0.11400
H780        H  0.35674131  0.40054664  0.78394832     0.13400
C781        C  0.31756578  0.18205732  0.82428431     0.19500
C782        C  0.33840667  0.20871292  0.81892539    -0.18600
C783        C  0.33593372  0.23137158  0.81965300    -0.10900
C784        C  0.31255656  0.22816101  0.82598424     0.21700
C785        C  0.29160934  0.20144997  0.83135298    -0.20200
C786        C  0.29403454  0.17863184  0.83055895    -0.11100
C787        C  0.30902229  0.25182711  0.82701276    -0.15200
C788        C  0.32972719  0.27916295  0.82422917    -0.29100
C789        C  0.32181330  0.15897231  0.82306564    -0.03400
C790        C  0.30249120  0.13140736  0.82609380    -0.39900
H791        H  0.35671739  0.21202550  0.81399562     0.12900
H792        H  0.35235181  0.25106389  0.81501504     0.12500
H793        H  0.27332246  0.19824103  0.83625088     0.11900
H794        H  0.27755549  0.15863256  0.83497419     0.12200
H795        H  0.28872921  0.24661973  0.83039244     0.14900
H796        H  0.35050555  0.28537412  0.82125284     0.13700
H797        H  0.34212054  0.16507136  0.81919086     0.11400
H798        H  0.28177523  0.12406534  0.82981763     0.13400
C799        C  0.30191270  0.23194854  0.66150705     0.19500
C800        C  0.27899825  0.20441840  0.66500313    -0.18600
C801        C  0.28141164  0.18159861  0.66458053    -0.10900
C802        C  0.30691219  0.18588598  0.66054710     0.21700
C803        C  0.32950918  0.21332399  0.65669708    -0.20200
C804        C  0.32710555  0.23607725  0.65715596    -0.11100
C805        C  0.31116359  0.16272771  0.66009008    -0.15200
C806        C  0.29335811  0.13660917  0.66532758    -0.29100
C807        C  0.29879425  0.25579866  0.66227519    -0.03400
C808        C  0.32083314  0.28284030  0.66447570    -0.39900
H809        H  0.25923973  0.20060778  0.66821695     0.12900
H810        H  0.26317289  0.16081902  0.66734356     0.12500
H811        H  0.34925612  0.21725439  0.65336067     0.11900
H812        H  0.34492038  0.25675928  0.65392005     0.12200
H813        H  0.33056876  0.16780676  0.65550642     0.14900
H814        H  0.27394540  0.13059471  0.67017089     0.13700
H815        H  0.27767155  0.25079136  0.66169332     0.11400
H816        H  0.34174507  0.28784919  0.66602688     0.13400
C817        C  0.34325524  0.07743057  0.75588490     0.19500
C818        C  0.35105673  0.09985864  0.74723304    -0.18600
C819        C  0.34994603  0.09603297  0.73352478    -0.10900
C820        C  0.34043430  0.06939481  0.72809196     0.21700
C821        C  0.33312082  0.04703037  0.73674287    -0.20200
C822        C  0.33479682  0.05105480  0.75049855    -0.11100
C823        C  0.33441267  0.06352000  0.71367794    -0.15200
C824        C  0.34787435  0.08369675  0.70424461    -0.29100
C825        C  0.34084029  0.08129894  0.77028398    -0.03400
C826        C  0.34492223  0.06802071  0.77995168    -0.39900
H827        H  0.35727203  0.12025938  0.75111073     0.12900
H828        H  0.35498329  0.11355805  0.72724877     0.12500
H829        H  0.32530239  0.02617821  0.73285229     0.11900
H830        H  0.32799136  0.03310707  0.75687952     0.12200
H831        H  0.31719171  0.04207399  0.71082766     0.14900
H832        H  0.36613109  0.10479411  0.70678822     0.13700
H833        H  0.33531771  0.09578200  0.77301974     0.11400
H834        H  0.35213782  0.05483681  0.77748661     0.13400
C835        C  0.86472998  0.77654265  0.82310427     0.19500
C836        C  0.89286598  0.79938365  0.82078544    -0.18600
C837        C  0.91450062  0.79544450  0.82108433    -0.10900
C838        C  0.90836390  0.76842849  0.82381743     0.21700
C839        C  0.88029492  0.74583365  0.82655191    -0.20200
C840        C  0.85870738  0.74976994  0.82621842    -0.11100
C841        C  0.93040230  0.76285023  0.82427829    -0.15200
C842        C  0.95667774  0.78046492  0.81934272    -0.29100
C843        C  0.84225367  0.78141451  0.82254973    -0.03400
C844        C  0.81541295  0.76070542  0.81938875    -0.39900
H845        H  0.89810338  0.82033355  0.81861518     0.12900
H846        H  0.93586140  0.81372752  0.81934522     0.12500
H847        H  0.87499035  0.72494314  0.82893562     0.11900
H848        H  0.83744768  0.73189466  0.82860064     0.12200
H849        H  0.92446061  0.74288230  0.82865601     0.14900
H850        H  0.96325529  0.80019642  0.81455094     0.13700
H851        H  0.84811143  0.80277574  0.82444020     0.11400
H852        H  0.80953978  0.73961044  0.81686199     0.13400
C853        C  0.14765344  0.88383835  0.82147174     0.19500
C854        C  0.17375900  0.89027323  0.81710659    -0.18600
C855        C  0.19805003  0.91831621  0.81727770    -0.10900
C856        C  0.19670199  0.94068685  0.82176777     0.21700
C857        C  0.17044764  0.93428626  0.82584371    -0.20200
C858        C  0.14622757  0.90626284  0.82574003    -0.11100
C859        C  0.22176410  0.97099132  0.82191179    -0.15200
C860        C  0.24874294  0.97923765  0.82191680    -0.29100
C861        C  0.12208641  0.85393172  0.82062629    -0.03400
C862        C  0.09864539  0.84373574  0.82796561    -0.39900
H863        H  0.17535364  0.87350868  0.81349890     0.12900
H864        H  0.21757766  0.92232649  0.81361150     0.12500
H865        H  0.16863454  0.95110644  0.82911582     0.11900
H866        H  0.12636580  0.90245472  0.82868720     0.12200
H867        H  0.21777680  0.98723505  0.82241470     0.14900
H868        H  0.25344112  0.96356003  0.82196960     0.13700
H869        H  0.12254524  0.83985937  0.81361297     0.11400
H870        H  0.09810616  0.85701052  0.83541199     0.13400
C871        C  0.84597454  0.76184887  0.66651885     0.19500
C872        C  0.84954225  0.74232978  0.66028642    -0.18600
C873        C  0.87575958  0.74648644  0.66029405    -0.10900
C874        C  0.89909239  0.77035776  0.66659168     0.21700
C875        C  0.89543300  0.78958630  0.67306822    -0.20200
C876        C  0.86919812  0.78547362  0.67302756    -0.11100
C877        C  0.92694093  0.77481752  0.66729664    -0.15200
C878        C  0.93561906  0.76401941  0.65838561    -0.29100
C879        C  0.81754681  0.75624574  0.66627959    -0.03400
C880        C  0.81293544  0.77630149  0.66842304    -0.39900
H881        H  0.83192446  0.72371331  0.65539423     0.12900
H882        H  0.87738304  0.73055183  0.65564285     0.12500
H883        H  0.91292670  0.80781595  0.67821597     0.11900
H884        H  0.86719592  0.80054101  0.67834061     0.12200
H885        H  0.94074418  0.78739231  0.67546719     0.14900
H886        H  0.92282407  0.75257163  0.64980486     0.13700
H887        H  0.79973387  0.73485338  0.66370147     0.11400
H888        H  0.83034487  0.79814815  0.67042415     0.13400
C889        C  0.18769243  0.94767918  0.66160215     0.19500
C890        C  0.16219631  0.94206475  0.65695098    -0.18600
C891        C  0.13757693  0.91433192  0.65678319    -0.10900
C892        C  0.13783378  0.89149569  0.66147206     0.21700
C893        C  0.16333072  0.89714812  0.66615733    -0.20200
C894        C  0.18795782  0.92487510  0.66630304    -0.11100
C895        C  0.11228868  0.86154129  0.66153550    -0.15200
C896        C  0.08573756  0.85409097  0.66034313    -0.29100
C897        C  0.21315018  0.97763265  0.66176774    -0.03400
C898        C  0.23977255  0.98511164  0.66266690    -0.39900
H899        H  0.16136229  0.95922895  0.65330449     0.12900
H900        H  0.11868658  0.91106206  0.65278813     0.12500
H901        H  0.16415462  0.88002094  0.66987332     0.11900
H902        H  0.20686626  0.92824219  0.67034231     0.12200
H903        H  0.11543211  0.84490025  0.66313942     0.14900
H904        H  0.08161274  0.87009719  0.65935942     0.13700
H905        H  0.20980703  0.99428230  0.66088824     0.11400
H906        H  0.24400894  0.96910810  0.66298452     0.13400
C907        C  0.01311856  0.74238631  0.75565035     0.19500
C908        C  0.99043062  0.73490778  0.74740578    -0.18600
C909        C  0.99375817  0.73738052  0.73369672    -0.10900
C910        C  0.02002004  0.74744143  0.72783012     0.21700
C911        C  0.04279462  0.75499633  0.73605125    -0.20200
C912        C  0.03942902  0.75241362  0.74981553    -0.11100
C913        C  0.02476802  0.75248886  0.71333413    -0.15200
C914        C  0.00376541  0.73874420  0.70444352    -0.29100
C915        C  0.00883811  0.74178224  0.77020003    -0.03400
C916        C  0.02634964  0.74321281  0.77937856    -0.39900
H917        H  0.97008676  0.72765321  0.75161329     0.12900
H918        H  0.97593244  0.73240061  0.72781868     0.12500
H919        H  0.06338367  0.76332033  0.73181408     0.11900
H920        H  0.05770495  0.75922717  0.75578672     0.12200
H921        H  0.04609464  0.76864593  0.70992633     0.14900
H922        H  0.98258379  0.72173929  0.70759092     0.13700
H923        H  0.99044163  0.74080227  0.77352706     0.11400
H924        H  0.04440892  0.74324731  0.77652933     0.13400
C925        C  0.99702014  0.69531971  0.60911869     0.19500
C926        C  0.01007577  0.70390321  0.59664091    -0.18600
C927        C  0.99804454  0.68564008  0.58572490    -0.10900
C928        C  0.97240520  0.65858875  0.58706888     0.21700
C929        C  0.95973780  0.64980042  0.59959157    -0.20200
C930        C  0.97192808  0.66784253  0.61051232    -0.11100
C931        C  0.95615837  0.64086864  0.57545952    -0.15200
C932        C  0.96768595  0.64133966  0.56379193    -0.29100
C933        C  0.00796485  0.71644369  0.62005716    -0.03400
C934        C  0.00327892  0.70909813  0.63291202    -0.39900
H935        H  0.02914176  0.72509573  0.59526036     0.12900
H936        H  0.00796723  0.69338733  0.57613714     0.12500
H937        H  0.93974828  0.62928042  0.60083186     0.11900
H938        H  0.96071654  0.66073880  0.61984263     0.12200
H939        H  0.93329358  0.62728008  0.57648503     0.14900
H940        H  0.99038557  0.65254892  0.56277101     0.13700
H941        H  0.01912139  0.73873335  0.61738135     0.11400
H942        H  0.99339213  0.68713306  0.63579889     0.13400
C943        C  0.99691743  0.36528711  0.62822058     0.19500
C944        C  0.00340255  0.36113491  0.61544979    -0.18600
C945        C  0.99220897  0.36542214  0.60433389    -0.10900
C946        C  0.97426387  0.37436309  0.60564433     0.21700
C947        C  0.96787507  0.37873364  0.61844314    -0.20200
C948        C  0.97903530  0.37426894  0.62963280    -0.11100
C949        C  0.96118588  0.37842448  0.59399634    -0.15200
C950        C  0.96991964  0.38009645  0.58144512    -0.29100
C951        C  0.00746933  0.35750490  0.63953861    -0.03400
C952        C  0.00587875  0.36261379  0.65239931    -0.39900
H953        H  0.01678684  0.35385152  0.61403624     0.12900
H954        H  0.99723039  0.36081547  0.59483648     0.12500
H955        H  0.95392778  0.38534551  0.61980154     0.11900
H956        H  0.97297161  0.37716724  0.63927637     0.12200
H957        H  0.94401895  0.38058354  0.59578825     0.14900
H958        H  0.98768974  0.37913791  0.57942981     0.13700
H959        H  0.01628562  0.34573328  0.63706815     0.11400
H960        H  0.99776345  0.37469028  0.65542354     0.13400
C961        C  0.94468639  0.52724702  0.54475613     0.19500
C962        C  0.96160739  0.52521025  0.55382872    -0.18600
C963        C  0.96051416  0.50040170  0.55476578    -0.10900
C964        C  0.94228305  0.47677541  0.54663190     0.21700
C965        C  0.92582121  0.47903215  0.53731204    -0.20200
C966        C  0.92691623  0.50393335  0.53637559    -0.11100
C967        C  0.94061196  0.44994883  0.54731342    -0.15200
C968        C  0.94840905  0.44237734  0.55805729    -0.29100
C969        C  0.94714581  0.55443723  0.54408918    -0.03400
C970        C  0.92682897  0.55651810  0.53929230    -0.39900
H971        H  0.97583199  0.54296665  0.56023818     0.12900
H972        H  0.97450624  0.50025022  0.56170366     0.12500
H973        H  0.91200661  0.46143366  0.53074376     0.11900
H974        H  0.91424025  0.50494361  0.52893294     0.12200
H975        H  0.93222338  0.43601229  0.53879239     0.14900
H976        H  0.95567383  0.45584258  0.56674754     0.13700
H977        H  0.96585992  0.57303109  0.54839401     0.11400
H978        H  0.90713535  0.53751822  0.53591331     0.13400
C979        C  0.01491571  0.67392986  0.50119200     0.19500
C980        C  0.03537385  0.70310016  0.49905631    -0.18600
C981        C  0.05538181  0.71234915  0.48887925    -0.10900
C982        C  0.05458738  0.69251378  0.48042147     0.21700
C983        C  0.03413087  0.66340088  0.48253787    -0.20200
C984        C  0.01476216  0.65413456  0.49295391    -0.11100
C985        C  0.07236109  0.70175385  0.46837542    -0.15200
C986        C  0.10063679  0.72075314  0.46843307    -0.29100
C987        C  0.99248876  0.66443470  0.51130404    -0.03400
C988        C  0.98273971  0.64130149  0.51882435    -0.39900
H989        H  0.03565920  0.71872352  0.50518663     0.12900
H990        H  0.07057673  0.73493984  0.48721596     0.12500
H991        H  0.03286925  0.64780915  0.47596652     0.11900
H992        H  0.99885983  0.63154614  0.49418267     0.12200
H993        H  0.06173607  0.69171296  0.45912307     0.14900
H994        H  0.11186915  0.72875426  0.47772880     0.13700
H995        H  0.98415021  0.67698438  0.51272058     0.11400
H996        H  0.99297945  0.63041261  0.51830767     0.13400
C997        C  0.99553585  0.41986087  0.51164241     0.19500
C998        C  0.00903085  0.44726748  0.50628609    -0.18600
C999        C  0.02963575  0.45681045  0.49638297    -0.10900
C1000       C  0.03694077  0.43890715  0.49153138     0.21700
C1001       C  0.02226046  0.41098373  0.49637260    -0.20200
C1002       C  0.00166137  0.40145463  0.50622145    -0.11100
C1003       C  0.06145075  0.44921508  0.48251379    -0.15200
C1004       C  0.07316350  0.47243310  0.47476339    -0.29100
C1005       C  0.97665060  0.41176980  0.52337117    -0.03400
C1006       C  0.97420730  0.39381765  0.53266240    -0.39900
H1007       H  0.00461519  0.46183662  0.51022369     0.12900
H1008       H  0.04067544  0.47858865  0.49307764     0.12500
H1009       H  0.02725828  0.39664757  0.49274811     0.11900
H1010       H  0.99099102  0.37983361  0.50972871     0.12200
H1011       H  0.07034437  0.43702412  0.48235800     0.14900
H1012       H  0.06319493  0.48348004  0.47384373     0.13700
H1013       H  0.96750117  0.42343832  0.52523397     0.11400
H1014       H  0.98574842  0.38438274  0.53148617     0.13400
C1015       C  0.14042783  0.64883722  0.45270485     0.19500
C1016       C  0.15363296  0.64269285  0.46226767    -0.18600
C1017       C  0.15001975  0.61637302  0.46228191    -0.10900
C1018       C  0.13277417  0.59545111  0.45275877     0.21700
C1019       C  0.11940124  0.60157787  0.44332113    -0.20200
C1020       C  0.12311823  0.62780791  0.44326316    -0.11100
C1021       C  0.12673256  0.56647490  0.45265520    -0.15200
C1022       C  0.14312160  0.55987882  0.45841474    -0.29100
C1023       C  0.14341593  0.67640943  0.45320902    -0.03400
C1024       C  0.14093525  0.68819362  0.44233191    -0.39900
H1025       H  0.16667285  0.65826205  0.46979963     0.12900
H1026       H  0.16010580  0.61230599  0.46996441     0.12500
H1027       H  0.10566589  0.58579726  0.43599177     0.11900
H1028       H  0.11161698  0.63109114  0.43604413     0.12200
H1029       H  0.10843078  0.55021415  0.44708926     0.14900
H1030       H  0.16262338  0.57649361  0.46315290     0.13700
H1031       H  0.14711052  0.68666049  0.46273628     0.11400
H1032       H  0.13844084  0.67821426  0.43282621     0.13400
C1033       C  0.25632592  0.48635558  0.46077486     0.19500
C1034       C  0.23003489  0.46768900  0.46696447    -0.18600
C1035       C  0.20892017  0.47247710  0.46631967    -0.10900
C1036       C  0.21368157  0.49599251  0.45931530     0.21700
C1037       C  0.23984573  0.51437377  0.45302475    -0.20200
C1038       C  0.26087358  0.50968706  0.45371928    -0.11100
C1039       C  0.19162844  0.50127216  0.45743641    -0.15200
C1040       C  0.16800269  0.48981489  0.46479773    -0.29100
C1041       C  0.27820848  0.48046347  0.46112892    -0.03400
C1042       C  0.30597177  0.50147451  0.46030404    -0.39900
H1043       H  0.22579315  0.44929292  0.47227057     0.12900
H1044       H  0.18878933  0.45731670  0.47099380     0.12500
H1045       H  0.24395514  0.53234196  0.44736374     0.11900
H1046       H  0.28034921  0.52395723  0.44835588     0.12200
H1047       H  0.19491289  0.51539996  0.44941146     0.14900
H1048       H  0.16424545  0.47633707  0.47316888     0.13700
H1049       H  0.27144624  0.45855862  0.46194974     0.11400
H1050       H  0.31251531  0.52335537  0.46030425     0.13400
C1051       C  0.46081465  0.57802679  0.45401099     0.19500
C1052       C  0.48350779  0.58606241  0.46239289    -0.18600
C1053       C  0.50882203  0.61343594  0.46154424    -0.10900
C1054       C  0.51178563  0.63304642  0.45218984     0.21700
C1055       C  0.48965345  0.62432319  0.44336862    -0.20200
C1056       C  0.46460866  0.59710080  0.44415678    -0.11100
C1057       C  0.53592946  0.66353419  0.45219014    -0.15200
C1058       C  0.56175235  0.67386410  0.45696175    -0.29100
C1059       C  0.43283872  0.55047154  0.45601768    -0.03400
C1060       C  0.40889833  0.54861611  0.45416329    -0.39900
H1061       H  0.48115891  0.57166458  0.47000288     0.12900
H1062       H  0.52534044  0.61959280  0.46862406     0.12500
H1063       H  0.49146980  0.63893001  0.43601800     0.11900
H1064       H  0.44795797  0.59124515  0.43720330     0.12200
H1065       H  0.53210952  0.67834509  0.44797731     0.14900
H1066       H  0.56711516  0.65953484  0.46007667     0.13700
H1067       H  0.43197241  0.53246802  0.45993946     0.11400
H1068       H  0.41041665  0.56772823  0.45152949     0.13400
C1069       C  0.70489102  0.70710513  0.60465914     0.19500
C1070       C  0.72484793  0.72229420  0.59456934    -0.18600
C1071       C  0.72383560  0.70881419  0.58286696    -0.10900
C1072       C  0.70271325  0.67969211  0.58091667     0.21700
C1073       C  0.68187942  0.66475388  0.59070504    -0.20200
C1074       C  0.68297341  0.67823856  0.60250109    -0.11100
C1075       C  0.70216317  0.66455619  0.56881452    -0.15200
C1076       C  0.72605732  0.67207251  0.56253102    -0.29100
C1077       C  0.70846906  0.72231033  0.61725756    -0.03400
C1078       C  0.69711097  0.70946539  0.62895640    -0.39900
H1079       H  0.74169989  0.74461401  0.59584561     0.12900
H1080       H  0.73965268  0.72133557  0.57534926     0.12500
H1081       H  0.66509499  0.64242770  0.58935073     0.11900
H1082       H  0.66668574  0.66595449  0.60984055     0.12200
H1083       H  0.68205199  0.64574142  0.56563349     0.14900
H1084       H  0.74629747  0.68912386  0.56657026     0.13700
H1085       H  0.72333773  0.74534973  0.61710697     0.11400
H1086       H  0.68300636  0.68648484  0.62965979     0.13400
C1087       C  0.85954059  0.63437595  0.53539670     0.19500
C1088       C  0.85778329  0.65525345  0.52943391    -0.18600
C1089       C  0.83354652  0.65489368  0.53106329    -0.10900
C1090       C  0.81082655  0.63387314  0.53891880     0.21700
C1091       C  0.81296537  0.61346794  0.54510450    -0.20200
C1092       C  0.83690884  0.61356298  0.54330984    -0.11100
C1093       C  0.78510710  0.63312226  0.54140240    -0.15200
C1094       C  0.77518815  0.64326453  0.53290994    -0.29100
C1095       C  0.88591001  0.63583689  0.53424121    -0.03400
C1096       C  0.88564827  0.61231537  0.53432805    -0.39900
H1097       H  0.87520386  0.67187169  0.52354103     0.12900
H1098       H  0.83302978  0.67150708  0.52647021     0.12500
H1099       H  0.79601958  0.59736669  0.55137601     0.11900
H1100       H  0.83800545  0.59780748  0.54846536     0.12200
H1101       H  0.77308688  0.62271486  0.55035922     0.14900
H1102       H  0.78608869  0.65255448  0.52361616     0.13700
H1103       H  0.90599029  0.65664529  0.53395944     0.11400
H1104       H  0.86553174  0.59157599  0.53387898     0.13400
C1105       C  0.67774364  0.67961789  0.50891910     0.19500
C1106       C  0.66652461  0.69476163  0.51257042    -0.18600
C1107       C  0.65722278  0.70506300  0.50296840    -0.10900
C1108       C  0.65881739  0.70026413  0.48943190     0.21700
C1109       C  0.66977340  0.68487195  0.48582948    -0.20200
C1110       C  0.67906367  0.67463674  0.49539613    -0.11100
C1111       C  0.64744128  0.70885871  0.47879609    -0.15200
C1112       C  0.64216096  0.72866102  0.48019104    -0.29100
C1113       C  0.68706470  0.66856878  0.51939007    -0.03400
C1114       C  0.70661437  0.66341063  0.51714428    -0.39900
H1115       H  0.66487391  0.69857595  0.52290868     0.12900
H1116       H  0.64814148  0.71601658  0.50625351     0.12500
H1117       H  0.67081900  0.68038176  0.47552402     0.11900
H1118       H  0.68654418  0.66219420  0.49211599     0.12200
H1119       H  0.64333602  0.69810223  0.46940288     0.14900
H1120       H  0.64763602  0.74050496  0.48936908     0.13700
H1121       H  0.67854305  0.66595000  0.52926945     0.11400
H1122       H  0.71670561  0.66831162  0.50751485     0.13400
C1123       C  0.38610480  0.40609891  0.61307478     0.19500
C1124       C  0.37546634  0.40268288  0.60022181    -0.18600
C1125       C  0.39118403  0.40469706  0.58916135    -0.10900
C1126       C  0.41784081  0.40987744  0.59075261     0.21700
C1127       C  0.42904854  0.41463541  0.60352762    -0.20200
C1128       C  0.41351132  0.41297991  0.61456689    -0.11100
C1129       C  0.43258350  0.40643666  0.57966579    -0.15200
C1130       C  0.43069314  0.41157488  0.56688299    -0.29100
C1131       C  0.36655782  0.39807673  0.62452960    -0.03400
C1132       C  0.37470829  0.40412195  0.63727670    -0.39900
H1133       H  0.35433448  0.39709638  0.59876109     0.12900
H1134       H  0.38166566  0.40037153  0.57948550     0.12500
H1135       H  0.44945131  0.41846026  0.60502001     0.11900
H1136       H  0.42240727  0.41526682  0.62423947     0.12200
H1137       H  0.44547593  0.39901150  0.58217679     0.14900
H1138       H  0.42026716  0.42155964  0.56419171     0.13700
H1139       H  0.34407296  0.38462432  0.62238131     0.11400
H1140       H  0.39687349  0.41853951  0.63980957     0.13400
C1141       C  0.38953667  0.45086791  0.49012350     0.19500
C1142       C  0.40702995  0.44190594  0.48732632    -0.18600
C1143       C  0.41694937  0.43330724  0.49744624    -0.10900
C1144       C  0.40967823  0.43354616  0.51070764     0.21700
C1145       C  0.39227936  0.44256387  0.51353310    -0.20200
C1146       C  0.38223850  0.45103029  0.50341574    -0.11100
C1147       C  0.42122813  0.42635789  0.52187957    -0.15200
C1148       C  0.42962501  0.40895154  0.52076036    -0.29100
C1149       C  0.38100155  0.46145986  0.47900734    -0.03400
C1150       C  0.36056012  0.46585178  0.47983153    -0.39900
H1151       H  0.41340192  0.44191207  0.47724131     0.12900
H1152       H  0.43098061  0.42733610  0.49486447     0.12500
H1153       H  0.38662914  0.44333384  0.52366543     0.11900
H1154       H  0.36951315  0.45843517  0.50618667     0.12200
H1155       H  0.42181665  0.43500869  0.53151820     0.14900
H1156       H  0.42671213  0.39810232  0.51147238     0.13700
H1157       H  0.39223456  0.46568375  0.46974623     0.11400
H1158       H  0.34817793  0.46020684  0.48882737     0.13400
C1159       C  0.56591159  0.49455240  0.54472185     0.19500
C1160       C  0.59000946  0.50024453  0.55120285    -0.18600
C1161       C  0.61572457  0.52709297  0.55041389    -0.10900
C1162       C  0.61809330  0.54891460  0.54292740     0.21700
C1163       C  0.59392847  0.54339314  0.53658596    -0.20200
C1164       C  0.56815223  0.51648514  0.53737178    -0.11100
C1165       C  0.64531596  0.57757375  0.54157427    -0.15200
C1166       C  0.67063925  0.58180961  0.54247380    -0.29100
C1167       C  0.53939480  0.46520780  0.54547820    -0.03400
C1168       C  0.51341129  0.45851271  0.54291244    -0.39900
H1169       H  0.58892815  0.48382330  0.55695637     0.12900
H1170       H  0.63356645  0.53067528  0.55579899     0.12500
H1171       H  0.59514295  0.55980827  0.53076493     0.11900
H1172       H  0.55035405  0.51289600  0.53195769     0.12200
H1173       H  0.64429120  0.59516779  0.53890168     0.14900
H1174       H  0.67150895  0.56369584  0.54399880     0.13700
H1175       H  0.54152311  0.44862543  0.54872295     0.11400
H1176       H  0.51075248  0.47519636  0.54064527     0.13400
C1177       C  0.28993597  0.88667443  0.44932825     0.19500
C1178       C  0.26301368  0.87954608  0.45262375    -0.18600
C1179       C  0.23954390  0.85107515  0.45304542    -0.10900
C1180       C  0.24240745  0.82911952  0.44981419     0.21700
C1181       C  0.26944619  0.83612798  0.44691614    -0.20200
C1182       C  0.29310134  0.86459828  0.44687758    -0.11100
C1183       C  0.21705187  0.80006253  0.44687451    -0.15200
C1184       C  0.19316117  0.78667325  0.45415177    -0.29100
C1185       C  0.31311642  0.91696077  0.44655611    -0.03400
C1186       C  0.34079812  0.92848231  0.44820511    -0.39900
H1187       H  0.25993347  0.89615655  0.45436103     0.12900
H1188       H  0.21886735  0.84638903  0.45493651     0.12500
H1189       H  0.27207045  0.81960194  0.44412799     0.11900
H1190       H  0.31341605  0.86936341  0.44401556     0.12200
H1191       H  0.21714202  0.79048109  0.43761423     0.14900
H1192       H  0.19283776  0.79497294  0.46374581     0.13700
H1193       H  0.30702409  0.93028033  0.44272961     0.11400
H1194       H  0.34731121  0.91644695  0.45311340     0.13400
C1195       C  0.59899690  0.86854598  0.46357235     0.19500
C1196       C  0.57781244  0.84034902  0.46001199    -0.18600
C1197       C  0.58252830  0.81912841  0.46069808    -0.10900
C1198       C  0.60878501  0.82564831  0.46490673     0.21700
C1199       C  0.62981453  0.85380438  0.46867673    -0.20200
C1200       C  0.62498898  0.87499495  0.46809395    -0.11100
C1201       C  0.61585362  0.80445237  0.46441277    -0.15200
C1202       C  0.59638681  0.77605458  0.46379436    -0.29100
C1203       C  0.59434236  0.89101723  0.46101158    -0.03400
C1204       C  0.60785236  0.91621895  0.46737658    -0.39900
H1205       H  0.55773173  0.83485180  0.45633882     0.12900
H1206       H  0.56590434  0.79802284  0.45733879     0.12500
H1207       H  0.65033623  0.85958961  0.47179438     0.11900
H1208       H  0.64211272  0.89660828  0.47059466     0.12200
H1209       H  0.63804222  0.81255206  0.46418204     0.14900
H1210       H  0.57414849  0.76741280  0.46454673     0.13700
H1211       H  0.57941508  0.88684109  0.45331341     0.11400
H1212       H  0.62177149  0.92035730  0.47555262     0.13400
C1213       C  0.46585862  0.96611210  0.45250532     0.19500
C1214       C  0.46400407  0.94236368  0.45750893    -0.18600
C1215       C  0.48840876  0.94293437  0.45898713    -0.10900
C1216       C  0.51518336  0.96754783  0.45565831     0.21700
C1217       C  0.51691836  0.99140315  0.45098590    -0.20200
C1218       C  0.49267418  0.99073143  0.44940204    -0.11100
C1219       C  0.54209828  0.97013272  0.45724667    -0.15200
C1220       C  0.54432978  0.94813895  0.45781499    -0.29100
C1221       C  0.43996156  0.96545670  0.45090106    -0.03400
C1222       C  0.43781342  0.97968391  0.44103732    -0.39900
H1223       H  0.44363739  0.92329380  0.46016849     0.12900
H1224       H  0.48622100  0.92435153  0.46294857     0.12500
H1225       H  0.53722507  0.01076640  0.44851662     0.11900
H1226       H  0.49508156  0.00978986  0.44596540     0.12200
H1227       H  0.56110674  0.99163136  0.45762578     0.14900
H1228       H  0.52546631  0.92647137  0.45764979     0.13700
H1229       H  0.42241729  0.95266476  0.45767456     0.11400
H1230       H  0.45456608  0.99017230  0.43367704     0.13400
C1231       C  0.69217321  0.08241068  0.62394184     0.19500
C1232       C  0.68719707  0.10341823  0.62288620    -0.18600
C1233       C  0.68641824  0.11365274  0.61051244    -0.10900
C1234       C  0.69118690  0.10343966  0.59891463     0.21700
C1235       C  0.69629054  0.08250138  0.59995924    -0.20200
C1236       C  0.69649954  0.07183541  0.61233815    -0.11100
C1237       C  0.69255697  0.11554926  0.58575538    -0.15200
C1238       C  0.67596351  0.12395090  0.58259112    -0.29100
C1239       C  0.69526450  0.07383713  0.63726482    -0.03400
C1240       C  0.68791811  0.04756425  0.64002838    -0.39900
H1241       H  0.68421573  0.11217411  0.63168953     0.12900
H1242       H  0.68312752  0.13029670  0.61008226     0.12500
H1243       H  0.70031678  0.07453377  0.59117819     0.11900
H1244       H  0.70113916  0.05617192  0.61283651     0.12200
H1245       H  0.70701108  0.11695577  0.57838746     0.14900
H1246       H  0.66025108  0.12074474  0.58969121     0.13700
H1247       H  0.70390372  0.08976329  0.64505022     0.11400
H1248       H  0.67780103  0.03102647  0.63254408     0.13400
C1249       C  0.64855645  0.04302884  0.49636878     0.19500
C1250       C  0.67517870  0.06323488  0.50187548    -0.18600
C1251       C  0.67793940  0.08056354  0.51243126    -0.10900
C1252       C  0.65393096  0.07730660  0.51793629     0.21700
C1253       C  0.62736200  0.05711709  0.51245761    -0.20200
C1254       C  0.62470003  0.04044800  0.50166935    -0.11100
C1255       C  0.65562428  0.09202425  0.53034965    -0.15200
C1256       C  0.67486642  0.12003333  0.53251357    -0.29100
C1257       C  0.64551209  0.02268670  0.48617898    -0.03400
C1258       C  0.62588292  0.01205457  0.47657425    -0.39900
H1259       H  0.69381372  0.06527713  0.49813471     0.12900
H1260       H  0.69857419  0.09547419  0.51670558     0.12500
H1261       H  0.60851748  0.05387802  0.51670893     0.11900
H1262       H  0.60379261  0.02454880  0.49792806     0.12200
H1263       H  0.63983993  0.07931749  0.53791426     0.14900
H1264       H  0.68899632  0.13362199  0.52461937     0.13700
H1265       H  0.65938310  0.01580011  0.48684195     0.11400
H1266       H  0.61372447  0.02077133  0.47523440     0.13400
C1267       C  0.83474474  0.30253464  0.55663587     0.19500
C1268       C  0.81097203  0.29536462  0.56411238    -0.18600
C1269       C  0.78497232  0.26885862  0.56252380    -0.10900
C1270       C  0.78249649  0.24869988  0.55367547     0.21700
C1271       C  0.80591965  0.25617730  0.54587386    -0.20200
C1272       C  0.83168076  0.28299595  0.54716248    -0.11100
C1273       C  0.75778509  0.21849343  0.55442396    -0.15200
C1274       C  0.73087543  0.20973281  0.55271198    -0.29100
C1275       C  0.86314566  0.32813300  0.56033676    -0.03400
C1276       C  0.88500815  0.34288658  0.55183114    -0.39900
H1277       H  0.81284123  0.30986127  0.57159983     0.12900
H1278       H  0.76740200  0.26333384  0.56887377     0.12500
H1279       H  0.80460934  0.24074842  0.53916691     0.11900
H1280       H  0.84966274  0.28753198  0.54144907     0.12200
H1281       H  0.76197641  0.20291600  0.55686680     0.14900
H1282       H  0.72641955  0.22455857  0.54924667     0.13700
H1283       H  0.86646970  0.33448075  0.57066804     0.11400
H1284       H  0.88164763  0.33866756  0.54130251     0.13400
C1285       C  0.38711283  0.10665126  0.60828965     0.19500
C1286       C  0.41554850  0.11830221  0.60528138    -0.18600
C1287       C  0.42651595  0.12872724  0.59256717    -0.10900
C1288       C  0.40925339  0.12799253  0.58261873     0.21700
C1289       C  0.38080775  0.11595864  0.58556680    -0.20200
C1290       C  0.36982121  0.10537994  0.59816893    -0.11100
C1291       C  0.42055249  0.14227021  0.56959075    -0.15200
C1292       C  0.44336676  0.14642556  0.56345584    -0.29100
C1293       C  0.37679617  0.09866515  0.62225076    -0.03400
C1294       C  0.34915215  0.08165272  0.62545031    -0.39900
H1295       H  0.42950224  0.11998110  0.61288484     0.12900
H1296       H  0.44872887  0.13849022  0.59074330     0.12500
H1297       H  0.36712617  0.11546758  0.57815560     0.11900
H1298       H  0.34811285  0.09759061  0.60000771     0.12200
H1299       H  0.40901660  0.14934820  0.56470150     0.14900
H1300       H  0.45368508  0.13724425  0.56751130     0.13700
H1301       H  0.39233088  0.10826450  0.63011925     0.11400
H1302       H  0.33343030  0.07117797  0.61773084     0.13400
C1303       C  0.42852220  0.10165574  0.49785291     0.19500
C1304       C  0.40155514  0.07924106  0.49356487    -0.18600
C1305       C  0.39844870  0.06140959  0.48320951    -0.10900
C1306       C  0.42232667  0.06633920  0.47666565     0.21700
C1307       C  0.44929006  0.08894655  0.48084252    -0.20200
C1308       C  0.45241488  0.10614586  0.49149540    -0.11100
C1309       C  0.41934709  0.05017892  0.46458625    -0.15200
C1310       C  0.40170379  0.02160973  0.46377335    -0.29100
C1311       C  0.43145758  0.12164868  0.50815898    -0.03400
C1312       C  0.45081860  0.13159345  0.51781557    -0.39900
H1313       H  0.38285624  0.07566460  0.49818664     0.12900
H1314       H  0.37743421  0.04456654  0.47993634     0.12500
H1315       H  0.46796080  0.09344905  0.47576186     0.11900
H1316       H  0.47344768  0.12368245  0.49439833     0.12200
H1317       H  0.43232467  0.06227494  0.45609620     0.14900
H1318       H  0.39069684  0.00915846  0.47254219     0.13700
H1319       H  0.41714754  0.12804146  0.50784516     0.11400
H1320       H  0.46330038  0.12313289  0.51876633     0.13400
C1321       C  0.60595589  0.17190734  0.54096630     0.19500
C1322       C  0.60847343  0.19732946  0.53872852    -0.18600
C1323       C  0.58427449  0.19716866  0.53738186    -0.10900
C1324       C  0.55708960  0.17140136  0.53802749     0.21700
C1325       C  0.55479896  0.14593298  0.53957662    -0.20200
C1326       C  0.57884039  0.14615206  0.54110434    -0.11100
C1327       C  0.53046369  0.16961932  0.53699505    -0.15200
C1328       C  0.52802559  0.19110957  0.53959977    -0.29100
C1329       C  0.63153020  0.17237308  0.54346669    -0.03400
C1330       C  0.63108497  0.15558220  0.55280493    -0.39900
H1331       H  0.62914993  0.21739688  0.53838866     0.12900
H1332       H  0.58699181  0.21716217  0.53578282     0.12500
H1333       H  0.53422149  0.12572903  0.53987310     0.11900
H1334       H  0.57618556  0.12608685  0.54242387     0.12200
H1335       H  0.51167808  0.14898877  0.53432370     0.14900
H1336       H  0.54657920  0.21211539  0.54199937     0.13700
H1337       H  0.65103170  0.18767387  0.53826849     0.11400
H1338       H  0.61197748  0.14243571  0.55868325     0.13400
C1339       C  0.46691406  0.31662363  0.53646320     0.19500
C1340       C  0.46512592  0.30146143  0.52512065    -0.18600
C1341       C  0.46677807  0.27808981  0.52605437    -0.10900
C1342       C  0.47078607  0.26969396  0.53839147     0.21700
C1343       C  0.47293726  0.28515180  0.54966056    -0.20200
C1344       C  0.47093285  0.30816811  0.54874957    -0.11100
C1345       C  0.47401960  0.24591327  0.54009464    -0.15200
C1346       C  0.46499930  0.22422615  0.53152973    -0.29100
C1347       C  0.46604839  0.34199857  0.53521293    -0.03400
C1348       C  0.45611140  0.35028040  0.54487519    -0.39900
H1349       H  0.46242464  0.30772702  0.51549806     0.12900
H1350       H  0.46559491  0.26718180  0.51708774     0.12500
H1351       H  0.47633301  0.27945781  0.55927673     0.11900
H1352       H  0.47333361  0.31977443  0.55766993     0.12200
H1353       H  0.48321215  0.24542783  0.54932649     0.14900
H1354       H  0.45477071  0.22328276  0.52240690     0.13700
H1355       H  0.47340635  0.35397875  0.52604191     0.16200
H1356       H  0.44720382  0.33733027  0.55371519     0.13400
C1357       C  0.48117196  0.93848541  0.04978606     0.19500
C1358       C  0.45898518  0.92564686  0.05903118    -0.18600
C1359       C  0.43791793  0.93043717  0.05861012    -0.10900
C1360       C  0.43837359  0.94788339  0.04875981     0.21700
C1361       C  0.46017198  0.96013261  0.03931783    -0.20200
C1362       C  0.48148310  0.95571045  0.03986795    -0.11100
C1363       C  0.41596695  0.95290189  0.04780831    -0.15200
C1364       C  0.40238725  0.95357036  0.05845803    -0.29100
C1365       C  0.50288685  0.93245860  0.05031935    -0.03400
C1366       C  0.52992906  0.95153571  0.04658202    -0.39900
H1367       H  0.45800949  0.91192797  0.06663952     0.12900
H1368       H  0.42099325  0.91995300  0.06581733     0.12500
H1369       H  0.46079092  0.97330514  0.03151883     0.11900
H1370       H  0.49779063  0.96524685  0.03234373     0.12200
H1371       H  0.41183073  0.95788936  0.03815967     0.14900
H1372       H  0.40845326  0.95130766  0.06824013     0.13700
H1373       H  0.49665053  0.91222162  0.05444601     0.11400
H1374       H  0.53675891  0.97272150  0.04362766     0.13400
C1375       C  0.67557308  0.09521512  0.90662528     0.19500
C1376       C  0.68780327  0.08017740  0.90572682    -0.18600
C1377       C  0.68873954  0.06873429  0.89366160    -0.10900
C1378       C  0.67750676  0.07219176  0.88213308     0.21700
C1379       C  0.66548451  0.08742101  0.88303581    -0.20200
C1380       C  0.66445622  0.09875939  0.89510399    -0.11100
C1381       C  0.67966727  0.06215616  0.86885964    -0.15200
C1382       C  0.68482107  0.04240351  0.86696968    -0.29100
C1383       C  0.67596747  0.10790754  0.91957100    -0.03400
C1384       C  0.65792705  0.11461911  0.92284563    -0.39900
H1385       H  0.69686648  0.07743934  0.91438840     0.12900
H1386       H  0.69904557  0.05799645  0.89341537     0.12500
H1387       H  0.65712258  0.09086554  0.87431357     0.11900
H1388       H  0.65565290  0.11095015  0.89523239     0.12200
H1389       H  0.67743652  0.07190520  0.86025231     0.14900
H1390       H  0.68645705  0.03174604  0.87532840     0.13700
H1391       H  0.69111370  0.11102016  0.92691345     0.11400
H1392       H  0.64168813  0.11039052  0.91594409     0.13400
C1393       C  0.62066914  0.02788103  0.00957231     0.19500
C1394       C  0.61207812  0.04584502  0.00726392    -0.18600
C1395       C  0.62128661  0.06325324  0.99605838    -0.10900
C1396       C  0.63965416  0.06336045  0.98687774     0.21700
C1397       C  0.64847705  0.04560945  0.98921529    -0.20200
C1398       C  0.63935628  0.02826270  0.00045980    -0.11100
C1399       C  0.64861013  0.08027624  0.97441453    -0.15200
C1400       C  0.64897068  0.10374441  0.97282410    -0.29100
C1401       C  0.60927520  0.00905968  0.02148109    -0.03400
C1402       C  0.60982478  0.98617268  0.02313968    -0.39900
H1403       H  0.59766040  0.04601179  0.01404501     0.12900
H1404       H  0.61327611  0.07592138  0.99447346     0.12500
H1405       H  0.66254443  0.04517294  0.98230032     0.11900
H1406       H  0.64717600  0.01540440  0.00191140     0.12200
H1407       H  0.65544854  0.07314201  0.96634540     0.14900
H1408       H  0.64427120  0.11222299  0.98116969     0.13700
H1409       H  0.59830514  0.01330477  0.02871047     0.11400
H1410       H  0.61917103  0.98066936  0.01557276     0.13400
C1411       C  0.38104365  0.09731646  0.88142892     0.19500
C1412       C  0.37220089  0.08034159  0.89286712    -0.18600
C1413       C  0.38364108  0.09238205  0.90530003    -0.10900
C1414       C  0.40405191  0.12186794  0.90661077     0.21700
C1415       C  0.41324406  0.13873974  0.89514046    -0.20200
C1416       C  0.40205366  0.12667933  0.88271633    -0.11100
C1417       C  0.41443448  0.13636345  0.91971588    -0.15200
C1418       C  0.41369866  0.12381924  0.93115326    -0.29100
C1419       C  0.36567060  0.08431668  0.86872078    -0.03400
C1420       C  0.37601341  0.09559183  0.85662510    -0.39900
H1421       H  0.35581066  0.05773844  0.89222952     0.12900
H1422       H  0.37553875  0.07870773  0.91389234     0.12500
H1423       H  0.42869091  0.16153527  0.89583343     0.11900
H1424       H  0.40897930  0.14070159  0.87427239     0.12200
H1425       H  0.42376865  0.15900261  0.91981972     0.14900
H1426       H  0.40692659  0.10190600  0.93115181     0.13700
H1427       H  0.34436878  0.06499237  0.86943576     0.11400
H1428       H  0.39768122  0.11405546  0.85553479     0.13400
C1429       C  0.37844751  0.02999787  0.01295593     0.19500
C1430       C  0.36287850  0.03915513  0.00741350    -0.18600
C1431       C  0.37271445  0.05660242  0.99622520    -0.10900
C1432       C  0.39890422  0.06605065  0.99041953     0.21700
C1433       C  0.41400954  0.05599806  0.99565234    -0.20200
C1434       C  0.40397527  0.03822281  0.00681788    -0.11100
C1435       C  0.41136368  0.08709884  0.97929620    -0.15200
C1436       C  0.40507595  0.10603017  0.97750003    -0.29100
C1437       C  0.36831020  0.01383802  0.02564022    -0.03400
C1438       C  0.37472023  0.99603367  0.02987017    -0.39900
H1439       H  0.34305065  0.03298092  0.01184836     0.12900
H1440       H  0.35972153  0.06274364  0.99224692     0.12500
H1441       H  0.43413347  0.06272526  0.99137237     0.11900
H1442       H  0.41678654  0.03194307  0.01090148     0.12200
H1443       H  0.42779345  0.08871444  0.97329538     0.14900
H1444       H  0.39046708  0.10589040  0.98428590     0.13700
H1445       H  0.35417610  0.01621719  0.03159619     0.11400
H1446       H  0.38667743  0.99135247  0.02352884     0.13400
C1447       C  0.57282450  0.14952760  0.95031995     0.19500
C1448       C  0.56594707  0.16496355  0.94267389    -0.18600
C1449       C  0.54157223  0.16370156  0.94536734    -0.10900
C1450       C  0.52320682  0.14652554  0.95567136     0.21700
C1451       C  0.53002422  0.13103458  0.96332886    -0.20200
C1452       C  0.55473232  0.13270862  0.96078118    -0.11100
C1453       C  0.49600839  0.14303563  0.95798699    -0.15200
C1454       C  0.49314499  0.16431562  0.95602454    -0.29100
C1455       C  0.59736620  0.14926141  0.94628778    -0.03400
C1456       C  0.61250847  0.14504014  0.95471192    -0.39900
H1457       H  0.57928832  0.17772528  0.93443894     0.12900
H1458       H  0.53659330  0.17533007  0.93904300     0.12500
H1459       H  0.51604304  0.11739243  0.97121518     0.11900
H1460       H  0.55899214  0.11993574  0.96665045     0.12200
H1461       H  0.47824147  0.12274240  0.96172937     0.14900
H1462       H  0.51164899  0.18534839  0.95352256     0.13700
H1463       H  0.60339333  0.15310517  0.93592659     0.11400
H1464       H  0.60844344  0.14380756  0.96525258     0.13400
C1465       C  0.99774319  0.68870412  0.87611097     0.19500
C1466       C  0.00263821  0.70193107  0.88845961    -0.18600
C1467       C  0.99074236  0.68581601  0.89995887    -0.10900
C1468       C  0.97385066  0.65592437  0.89944774     0.21700
C1469       C  0.97053935  0.64258973  0.88725416    -0.20200
C1470       C  0.98215440  0.65879087  0.87564294    -0.11100
C1471       C  0.95850982  0.63869822  0.91144450    -0.15200
C1472       C  0.94609418  0.64678344  0.91968427    -0.29100
C1473       C  0.00875725  0.70714439  0.86411763    -0.03400
C1474       C  0.99721059  0.69872853  0.85199081    -0.39900
H1475       H  0.01494423  0.72490736  0.88917314     0.12900
H1476       H  0.99441388  0.69678589  0.90925797     0.12500
H1477       H  0.95800118  0.61959817  0.88663313     0.11900
H1478       H  0.97868981  0.64786806  0.86636189     0.12200
H1479       H  0.95532461  0.61835422  0.91288003     0.14900
H1480       H  0.94712754  0.66572542  0.91724160     0.13700
H1481       H  0.02544929  0.72954922  0.86564833     0.11400
H1482       H  0.97976147  0.67675374  0.85021744     0.13400
C1483       C  0.98166921  0.34574799  0.89020587     0.19500
C1484       C  0.98184639  0.33971025  0.90360692    -0.18600
C1485       C  0.96854156  0.34595051  0.91309844    -0.10900
C1486       C  0.95452565  0.35828748  0.90937732     0.21700
C1487       C  0.95386854  0.36382806  0.89594581    -0.20200
C1488       C  0.96735885  0.35776359  0.88645365    -0.11100
C1489       C  0.93971911  0.36480237  0.91917143    -0.15200
C1490       C  0.94741327  0.37072572  0.93193685    -0.29100
C1491       C  0.99483206  0.33732813  0.88039887    -0.03400
C1492       C  0.00339627  0.34875896  0.86824649    -0.39900
H1493       H  0.99219725  0.32993457  0.90674734     0.12900
H1494       H  0.96872127  0.34040738  0.92326998     0.12500
H1495       H  0.94286364  0.37290445  0.89278042     0.11900
H1496       H  0.96582948  0.36181554  0.87618868     0.12200
H1497       H  0.92275526  0.36601660  0.91568477     0.14900
H1498       H  0.96534224  0.37113174  0.93534908     0.13700
H1499       H  0.99737448  0.32079287  0.88331261     0.11400
H1500       H  0.00207235  0.36599897  0.86523839     0.13400
C1501       C  0.81377007  0.29080814  0.95701989     0.19500
C1502       C  0.80173858  0.26562731  0.96436086    -0.18600
C1503       C  0.77368684  0.24231437  0.96225857    -0.10900
C1504       C  0.75721031  0.24337482  0.95246454     0.21700
C1505       C  0.76897919  0.26890701  0.94541122    -0.20200
C1506       C  0.79681485  0.29249761  0.94776994    -0.11100
C1507       C  0.72954076  0.21727902  0.94816697    -0.15200
C1508       C  0.71181318  0.19500797  0.95613885    -0.29100
C1509       C  0.84497215  0.31261296  0.95740395    -0.03400
C1510       C  0.85790356  0.34096726  0.95631203    -0.39900
H1511       H  0.81447862  0.26358795  0.97138582     0.12900
H1512       H  0.76563623  0.22288465  0.96769131     0.12500
H1513       H  0.75693368  0.27025133  0.93769912     0.11900
H1514       H  0.80566560  0.31132167  0.94171983     0.12200
H1515       H  0.72381694  0.21618583  0.93786908     0.14900
H1516       H  0.71575330  0.19669131  0.96668050     0.13700
H1517       H  0.85799252  0.30470747  0.95805373     0.11400
H1518       H  0.84556819  0.34964952  0.95675565     0.13400
C1519       C  0.91626740  0.52451877  0.94615117     0.19500
C1520       C  0.93773345  0.52176392  0.94203520    -0.18600
C1521       C  0.93531719  0.49639373  0.94397866    -0.10900
C1522       C  0.91125215  0.47288992  0.95016253     0.21700
C1523       C  0.89000215  0.47578890  0.95456172    -0.20200
C1524       C  0.89235326  0.50121423  0.95253836    -0.11100
C1525       C  0.90841622  0.44569663  0.95259778    -0.15200
C1526       C  0.92120747  0.43711245  0.94488125    -0.29100
C1527       C  0.92078459  0.55266260  0.94439591    -0.03400
C1528       C  0.90002344  0.55665933  0.94441738    -0.39900
H1529       H  0.95666536  0.53947411  0.93734917     0.12900
H1530       H  0.95274461  0.49562528  0.94090550     0.12500
H1531       H  0.87149243  0.45830295  0.95958014     0.11900
H1532       H  0.87576282  0.50269033  0.95629029     0.12200
H1533       H  0.89498550  0.43232456  0.96068687     0.14900
H1534       H  0.93288343  0.44973798  0.93626855     0.13700
H1535       H  0.94250367  0.57085147  0.94315045     0.11400
H1536       H  0.87822428  0.53843052  0.94551043     0.13400
C1537       C  0.03662446  0.67376353  0.00165570     0.19500
C1538       C  0.01331898  0.64619058  0.99852866    -0.18600
C1539       C  0.99574716  0.64148356  0.98793268    -0.10900
C1540       C  0.00074527  0.66443616  0.98041704     0.21700
C1541       C  0.02439310  0.69200413  0.98334490    -0.20200
C1542       C  0.04247833  0.69663218  0.99375746    -0.11100
C1543       C  0.97969729  0.66013423  0.97058349    -0.15200
C1544       C  0.96593205  0.63729290  0.96257550    -0.29100
C1545       C  0.05139826  0.67837645  0.01434481    -0.03400
C1546       C  0.07886292  0.69904181  0.01655015    -0.39900
H1547       H  0.00812310  0.62830722  0.00460579     0.12900
H1548       H  0.97733545  0.62009732  0.98611089     0.12500
H1549       H  0.02845030  0.71004751  0.97777600     0.11900
H1550       H  0.05990513  0.71819967  0.99612654     0.12200
H1551       H  0.97505124  0.67587986  0.97010797     0.14900
H1552       H  0.97232428  0.62291845  0.96216891     0.13700
H1553       H  0.03869688  0.66421825  0.02243839     0.11400
H1554       H  0.09281460  0.71189016  0.00846066     0.13400
C1555       C  0.26349853  0.85715322  0.04724336     0.19500
C1556       C  0.25224309  0.83031906  0.05282622    -0.18600
C1557       C  0.22450702  0.80729811  0.05003883    -0.10900
C1558       C  0.20726489  0.81101891  0.04195793     0.21700
C1559       C  0.21863875  0.83768399  0.03620360    -0.20200
C1560       C  0.24665365  0.86045712  0.03863989    -0.11100
C1561       C  0.17649740  0.78871212  0.04113549    -0.15200
C1562       C  0.16555943  0.76105209  0.03932237    -0.29100
C1563       C  0.29070039  0.88228774  0.05219689    -0.03400
C1564       C  0.30882730  0.90521683  0.04473363    -0.39900
H1565       H  0.26462614  0.82743408  0.05970685     0.12900
H1566       H  0.21596682  0.78710778  0.05487138     0.12500
H1567       H  0.20552645  0.84111187  0.03014995     0.11900
H1568       H  0.25447773  0.88109122  0.03451006     0.12200
H1569       H  0.16240349  0.79519706  0.04256359     0.14900
H1570       H  0.17932028  0.75462644  0.03678768     0.13700
H1571       H  0.29507371  0.88270053  0.06265776     0.11400
H1572       H  0.30621943  0.90452787  0.03409873     0.13400
C1573       C  0.02235528  0.43323657  0.01612594     0.19500
C1574       C  0.00894759  0.44584019  0.01178145    -0.18600
C1575       C  0.98879171  0.43342887  0.00159169    -0.10900
C1576       C  0.98132982  0.40783108  0.99563759     0.21700
C1577       C  0.99394413  0.39476441  0.00038953    -0.20200
C1578       C  0.01401927  0.40713655  0.01048631    -0.11100
C1579       C  0.96280472  0.39504096  0.98373853    -0.15200
C1580       C  0.94726210  0.40307100  0.97815358    -0.29100
C1581       C  0.04489688  0.44773828  0.02646531    -0.03400
C1582       C  0.06565939  0.44383940  0.02767567    -0.39900
H1583       H  0.01469789  0.46581028  0.01602181     0.12900
H1584       H  0.97984263  0.44438194  0.99818839     0.12500
H1585       H  0.98862460  0.37499642  0.99608096     0.11900
H1586       H  0.02292857  0.39609354  0.01381490     0.12200
H1587       H  0.96282727  0.37816295  0.97894661     0.14900
H1588       H  0.94463457  0.41814882  0.98306903     0.13700
H1589       H  0.04548747  0.46354172  0.03261633     0.11400
H1590       H  0.06669954  0.43008738  0.02073136     0.13400
C1591       C  0.11229249  0.62130189  0.04908654     0.19500
C1592       C  0.09317901  0.59455792  0.05483828    -0.18600
C1593       C  0.09753488  0.57318347  0.05399845    -0.10900
C1594       C  0.12125259  0.57798067  0.04727962     0.21700
C1595       C  0.14067785  0.60494440  0.04169845    -0.20200
C1596       C  0.13633551  0.62642491  0.04258585    -0.11100
C1597       C  0.12698149  0.55591182  0.04619261    -0.15200
C1598       C  0.10780674  0.52815763  0.04906236    -0.29100
C1599       C  0.10644937  0.64313989  0.05054147    -0.03400
C1600       C  0.11834036  0.66682422  0.04311772    -0.39900
H1601       H  0.07468478  0.59012876  0.06006845     0.12900
H1602       H  0.08238927  0.55327710  0.05886037     0.12500
H1603       H  0.15936650  0.60945533  0.03664575     0.11900
H1604       H  0.15206378  0.64697693  0.03835299     0.12200
H1605       H  0.14769681  0.56294372  0.04259689     0.14900
H1606       H  0.08658854  0.52057521  0.05199327     0.13700
H1607       H  0.09035117  0.63846653  0.05770949     0.11400
H1608       H  0.13302269  0.67084501  0.03528003     0.13400
C1609       C  0.58243209  0.80872368  0.04501249     0.19500
C1610       C  0.55859149  0.80863699  0.04765153    -0.18600
C1611       C  0.56026255  0.83389153  0.04738969    -0.10900
C1612       C  0.58590718  0.85996915  0.04425932     0.21700
C1613       C  0.60966787  0.85997966  0.04144896    -0.20200
C1614       C  0.60800087  0.83474061  0.04174135    -0.11100
C1615       C  0.58926921  0.88771632  0.04428171    -0.15200
C1616       C  0.56784651  0.89073044  0.04458410    -0.29100
C1617       C  0.57951961  0.78121297  0.04538199    -0.03400
C1618       C  0.60138992  0.77940463  0.04751079    -0.39900
H1619       H  0.53857748  0.78891096  0.05013063     0.12900
H1620       H  0.54152170  0.83276802  0.04987243     0.12500
H1621       H  0.62970149  0.87967753  0.03896246     0.11900
H1622       H  0.62667584  0.83573814  0.03919869     0.12200
H1623       H  0.61074578  0.90696362  0.04407251     0.14900
H1624       H  0.54607056  0.87222252  0.04443121     0.13700
H1625       H  0.55844917  0.76205968  0.04406620     0.11400
H1626       H  0.62223188  0.79880832  0.04917777     0.13400
C1627       C  0.19938764  0.47388847  0.04188099     0.19500
C1628       C  0.20137106  0.45142576  0.03843718    -0.18600
C1629       C  0.22734249  0.45481948  0.03893160    -0.10900
C1630       C  0.25201837  0.48080119  0.04301243     0.21700
C1631       C  0.24999254  0.50316580  0.04652838    -0.20200
C1632       C  0.22411694  0.49986069  0.04593406    -0.11100
C1633       C  0.27985060  0.48502931  0.04443150    -0.15200
C1634       C  0.28737708  0.47017346  0.03764654    -0.29100
C1635       C  0.17094845  0.46867961  0.04223430    -0.03400
C1636       C  0.16686924  0.48950650  0.04230963    -0.39900
H1637       H  0.18266408  0.43102836  0.03552044     0.12900
H1638       H  0.22775889  0.43675595  0.03650698     0.12500
H1639       H  0.26850982  0.52326107  0.04987828     0.11900
H1640       H  0.22354749  0.51746147  0.04911638     0.12200
H1641       H  0.29522101  0.50171269  0.05106502     0.14900
H1642       H  0.27289109  0.45433233  0.03050498     0.13700
H1643       H  0.15253344  0.44675316  0.04290328     0.11400
H1644       H  0.18476873  0.51147690  0.04108400     0.13400
C1645       C  0.44581368  0.57568669  0.04070588     0.19500
C1646       C  0.46828417  0.58291688  0.04910344    -0.18600
C1647       C  0.49325055  0.61054668  0.04920661    -0.10900
C1648       C  0.49644172  0.63161663  0.04078780     0.21700
C1649       C  0.47419754  0.62426250  0.03223805    -0.20200
C1650       C  0.44931365  0.59664113  0.03208963    -0.11100
C1651       C  0.52181988  0.66174256  0.04107240    -0.15200
C1652       C  0.54742948  0.66996474  0.04545233    -0.29100
C1653       C  0.41926585  0.54620702  0.04127441    -0.03400
C1654       C  0.39402279  0.53907859  0.03686754    -0.39900
H1655       H  0.46629389  0.56726902  0.05582057     0.12900
H1656       H  0.50959164  0.61543057  0.05616062     0.12500
H1657       H  0.47608578  0.63999731  0.02561595     0.11900
H1658       H  0.43305513  0.59192501  0.02513475     0.12200
H1659       H  0.51933607  0.67761811  0.03708797     0.14900
H1660       H  0.55077051  0.65405970  0.04840389     0.13700
H1661       H  0.42047647  0.53034399  0.04626466     0.11400
H1662       H  0.39231012  0.55535227  0.03273973     0.13400
C1663       C  0.72029538  0.72206700  0.88212974     0.19500
C1664       C  0.72494570  0.73548307  0.89443007    -0.18600
C1665       C  0.72259683  0.72143080  0.90618559    -0.10900
C1666       C  0.71609275  0.69382411  0.90580962     0.21700
C1667       C  0.71124540  0.68039608  0.89351861    -0.20200
C1668       C  0.71313181  0.69421754  0.88182044    -0.11100
C1669       C  0.71674669  0.67934027  0.91777622    -0.15200
C1670       C  0.71172783  0.68397795  0.93018128    -0.29100
C1671       C  0.72602876  0.73847324  0.86974994    -0.03400
C1672       C  0.71310669  0.72623445  0.85820350    -0.39900
H1673       H  0.73094527  0.75709927  0.89491978     0.12900
H1674       H  0.72711120  0.73267577  0.91545545     0.12500
H1675       H  0.70656075  0.65928101  0.89293959     0.11900
H1676       H  0.71027671  0.68352912  0.87252843     0.12200
H1677       H  0.72071981  0.66326451  0.91619851     0.14900
H1678       H  0.70486008  0.69769583  0.93194579     0.13700
H1679       H  0.74212719  0.76129165  0.87008322     0.11400
H1680       H  0.69587162  0.70377721  0.85787908     0.13400
C1681       C  0.83081545  0.62486413  0.94975836     0.19500
C1682       C  0.80348034  0.60857866  0.94442158    -0.18600
C1683       C  0.78504021  0.61662676  0.94621557    -0.10900
C1684       C  0.79355508  0.64141281  0.95336172     0.21700
C1685       C  0.82098518  0.65789805  0.95857534    -0.20200
C1686       C  0.83936969  0.64970338  0.95687925    -0.11100
C1687       C  0.77493866  0.65140720  0.95475771    -0.15200
C1688       C  0.74653853  0.63345148  0.95469206    -0.29100
C1689       C  0.85048976  0.61668121  0.94670799    -0.03400
C1690       C  0.87386329  0.62541669  0.95376697    -0.39900
H1691       H  0.79646200  0.58969159  0.93866351     0.12900
H1692       H  0.76449202  0.60386525  0.94160162     0.12500
H1693       H  0.82831073  0.67734895  0.96390441     0.11900
H1694       H  0.86053730  0.66345028  0.96077115     0.12200
H1695       H  0.78479854  0.67411051  0.95573986     0.14900
H1696       H  0.73677144  0.61071318  0.95441241     0.13700
H1697       H  0.84598245  0.60348439  0.93804980     0.11400
H1698       H  0.87813081  0.63755034  0.96276315     0.13400
C1699       C  0.65293582  0.70294443  0.01253003     0.19500
C1700       C  0.66738874  0.69025314  0.01406156    -0.18600
C1701       C  0.67896675  0.68535789  0.00309789    -0.10900
C1702       C  0.67610381  0.69289062  0.99029300     0.21700
C1703       C  0.66168267  0.70560420  0.98880699    -0.20200
C1704       C  0.65024563  0.71057483  0.99973406    -0.11100
C1705       C  0.68516248  0.68540996  0.97812431    -0.15200
C1706       C  0.70423430  0.67912197  0.97786205    -0.29100
C1707       C  0.63947146  0.70644346  0.02425859    -0.03400
C1708       C  0.63439317  0.72646830  0.02484353    -0.39900
H1709       H  0.66943897  0.68378848  0.02376770     0.12900
H1710       H  0.68915212  0.67474754  0.00468102     0.12500
H1711       H  0.65868699  0.71118001  0.97907302     0.11900
H1712       H  0.63843674  0.71945661  0.99800530     0.12200
H1713       H  0.67510927  0.68479603  0.96903445     0.14900
H1714       H  0.71559868  0.68142737  0.98680415     0.13700
H1715       H  0.63418214  0.69248150  0.03262703     0.11400
H1716       H  0.64178106  0.74169405  0.01682879     0.13400
C1717       C  0.38758458  0.38777128  0.88517202     0.19500
C1718       C  0.37859048  0.38936913  0.89783465    -0.18600
C1719       C  0.39353369  0.39115800  0.90905660    -0.10900
C1720       C  0.41750665  0.39083765  0.90779370     0.21700
C1721       C  0.42674760  0.38974078  0.89512668    -0.20200
C1722       C  0.41212597  0.38846731  0.88391142    -0.11100
C1723       C  0.43158493  0.38871979  0.91943618    -0.15200
C1724       C  0.43278975  0.39985774  0.93132215    -0.29100
C1725       C  0.36912008  0.38158452  0.87366265    -0.03400
C1726       C  0.37889817  0.38922693  0.86121531    -0.39900
H1727       H  0.35949854  0.38841354  0.89905940     0.12900
H1728       H  0.38544974  0.39129705  0.91869505     0.12500
H1729       H  0.44496272  0.38912788  0.89392192     0.11900
H1730       H  0.41919199  0.38643629  0.87434102     0.12200
H1731       H  0.44186643  0.37800323  0.91804966     0.14900
H1732       H  0.42507560  0.41299474  0.93253448     0.13700
H1733       H  0.34647776  0.36919428  0.87546606     0.11400
H1734       H  0.40147066  0.40311907  0.85930221     0.13400
C1735       C  0.44512381  0.24977626  0.95692546     0.19500
C1736       C  0.46624795  0.27631907  0.95156183    -0.18600
C1737       C  0.46436858  0.29938887  0.95255205    -0.10900
C1738       C  0.44113233  0.29643714  0.95889740     0.21700
C1739       C  0.41977565  0.26980903  0.96410861    -0.20200
C1740       C  0.42177883  0.24673503  0.96322239    -0.11100
C1741       C  0.43801088  0.32035058  0.95939780    -0.15200
C1742       C  0.46054717  0.34766050  0.95982256    -0.29100
C1743       C  0.44730455  0.22545712  0.95496932    -0.03400
C1744       C  0.43417641  0.20217829  0.96269722    -0.39900
H1745       H  0.48418075  0.27915811  0.94646358     0.12900
H1746       H  0.48075137  0.31926736  0.94795976     0.12500
H1747       H  0.40143341  0.26682484  0.96881668     0.11900
H1748       H  0.40457200  0.22641802  0.96710570     0.12200
H1749       H  0.41693472  0.31550150  0.95909928     0.14900
H1750       H  0.48139625  0.35217624  0.96083842     0.13700
H1751       H  0.46043415  0.22679065  0.94687965     0.11400
H1752       H  0.42208104  0.20101582  0.97120518     0.13400
C1753       C  0.38820969  0.43817306  0.01259389     0.19500
C1754       C  0.41518064  0.45407197  0.00681013    -0.18600
C1755       C  0.42385651  0.44120077  0.99839692    -0.10900
C1756       C  0.40576719  0.41191539  0.99559613     0.21700
C1757       C  0.37914719  0.39569429  0.00176090    -0.20200
C1758       C  0.37031255  0.40868002  0.01011586    -0.11100
C1759       C  0.41468170  0.39804851  0.98649442    -0.15200
C1760       C  0.43156340  0.41200747  0.97602259    -0.29100
C1761       C  0.38006498  0.45317159  0.02136238    -0.03400
C1762       C  0.35319964  0.44425253  0.02349916    -0.39900
H1763       H  0.42958591  0.47669742  0.00872097     0.12900
H1764       H  0.44493275  0.45420920  0.99423310     0.12500
H1765       H  0.36502385  0.37300534  0.99996531     0.11900
H1766       H  0.34971099  0.39553813  0.01473251     0.12200
H1767       H  0.40653511  0.37596918  0.98822124     0.14900
H1768       H  0.43756128  0.43327886  0.97388086     0.13700
H1769       H  0.39712752  0.47349916  0.02539919     0.11400
H1770       H  0.33611768  0.42526182  0.01852846     0.13400
C1771       C  0.54743428  0.50511312  0.95584042     0.19500
C1772       C  0.55696791  0.52788933  0.94711355    -0.18600
C1773       C  0.58474470  0.55252168  0.94798038    -0.10900
C1774       C  0.60314505  0.55470316  0.95773472     0.21700
C1775       C  0.59288221  0.53257144  0.96687674    -0.20200
C1776       C  0.56536218  0.50822591  0.96603237    -0.11100
C1777       C  0.63373148  0.57804399  0.95819043    -0.15200
C1778       C  0.64617584  0.60367151  0.95245155    -0.29100
C1779       C  0.51929764  0.47773762  0.95406889    -0.03400
C1780       C  0.51589621  0.45295341  0.95640797    -0.39900
H1781       H  0.54338143  0.52608508  0.93927890     0.12900
H1782       H  0.59200263  0.56908323  0.94069079     0.12500
H1783       H  0.60646960  0.53381109  0.97456755     0.11900
H1784       H  0.55830427  0.49155826  0.97325649     0.12200
H1785       H  0.64680052  0.57382779  0.96384371     0.14900
H1786       H  0.63361219  0.60972563  0.94777684     0.13700
H1787       H  0.50195160  0.47808706  0.95044785     0.11400
H1788       H  0.53435711  0.45346512  0.95895753     0.13400
C1789       C  0.65229150  0.72278341  0.41492553     0.19500
C1790       C  0.67260852  0.71752917  0.41214915    -0.18600
C1791       C  0.68069811  0.71748340  0.39907195    -0.10900
C1792       C  0.66825430  0.72229388  0.38849660     0.21700
C1793       C  0.64701959  0.72622215  0.39128178    -0.20200
C1794       C  0.63921085  0.72661258  0.40432639    -0.11100
C1795       C  0.67722715  0.72401802  0.37450672    -0.15200
C1796       C  0.70377363  0.73357110  0.37113197    -0.29100
C1797       C  0.64431219  0.72346005  0.42885524    -0.03400
C1798       C  0.63770289  0.74134455  0.43267229    -0.39900
H1799       H  0.68258289  0.71396141  0.42012154     0.12900
H1800       H  0.69654467  0.71351892  0.39728716     0.12500
H1801       H  0.63683125  0.72960167  0.38334206     0.11900
H1802       H  0.62272356  0.72969122  0.40609587     0.12200
H1803       H  0.66255233  0.72037511  0.36676773     0.14900
H1804       H  0.71935217  0.73963256  0.37877514     0.13700
H1805       H  0.64436215  0.70944737  0.43595201     0.11400
H1806       H  0.64003032  0.75661663  0.42553475     0.13400
C1807       C  0.63733661  0.72041645  0.09494672     0.19500
C1808       C  0.62579817  0.71607277  0.10769106    -0.18600
C1809       C  0.64037507  0.71642798  0.11876733    -0.10900
C1810       C  0.66709868  0.72155437  0.11732607     0.21700
C1811       C  0.67815125  0.72489123  0.10453661    -0.20200
C1812       C  0.66340062  0.72415179  0.09345452    -0.11100
C1813       C  0.68571142  0.72775147  0.12884776    -0.15200
C1814       C  0.67643143  0.71902478  0.14130912    -0.29100
C1815       C  0.62342565  0.72432019  0.08371473    -0.03400
C1816       C  0.62624126  0.71944672  0.07097185    -0.39900
H1817       H  0.60587314  0.71339409  0.10912492     0.12900
H1818       H  0.63141340  0.71442987  0.12845123     0.12500
H1819       H  0.69882030  0.72922185  0.10315140     0.11900
H1820       H  0.67326492  0.72818617  0.08383544     0.12200
H1821       H  0.70835724  0.74160032  0.12704746     0.14900
H1822       H  0.65402254  0.70409686  0.14335065     0.13700
H1823       H  0.61027361  0.73158065  0.08607064     0.11400
H1824       H  0.63695137  0.70960316  0.06846642     0.13400
C1825       C  0.70931672  0.73862413  0.26756831     0.19500
C1826       C  0.70194131  0.75267439  0.25919944    -0.18600
C1827       C  0.70321567  0.75082826  0.24547458    -0.10900
C1828       C  0.71214369  0.73493740  0.23974278     0.21700
C1829       C  0.71900976  0.72040500  0.24813794    -0.20200
C1830       C  0.71743944  0.72203127  0.26191233    -0.11100
C1831       C  0.71703402  0.73530420  0.22521968    -0.15200
C1832       C  0.70499341  0.74215703  0.21614590    -0.29100
C1833       C  0.71215195  0.74511878  0.28192831    -0.03400
C1834       C  0.71008583  0.72786397  0.29152795    -0.39900
H1835       H  0.69606033  0.76596588  0.26331276     0.12900
H1836       H  0.69855507  0.76310124  0.23948586     0.12500
H1837       H  0.72632895  0.70834282  0.24402529     0.11900
H1838       H  0.72401070  0.71155651  0.26807341     0.12200
H1839       H  0.73178752  0.73060338  0.22192476     0.14900
H1840       H  0.68942894  0.74590624  0.21912868     0.13700
H1841       H  0.71693827  0.76573225  0.28469730     0.11400
H1842       H  0.70350632  0.70642400  0.28924348     0.13400
C1843       C  0.73635438  0.92780632  0.16838817     0.19500
C1844       C  0.76085724  0.92901019  0.17071759    -0.18600
C1845       C  0.76020186  0.90437824  0.17013173    -0.10900
C1846       C  0.73487509  0.87793966  0.16717561     0.21700
C1847       C  0.71068440  0.87697366  0.16434368    -0.20200
C1848       C  0.71135938  0.90156213  0.16491387    -0.11100
C1849       C  0.73234403  0.85076326  0.16699030    -0.15200
C1850       C  0.75119424  0.84709424  0.17237171    -0.29100
C1851       C  0.73792536  0.95440882  0.16947407    -0.03400
C1852       C  0.71516343  0.95494268  0.17096818    -0.39900
H1853       H  0.78052878  0.94904383  0.17315221     0.12900
H1854       H  0.77958092  0.90633718  0.17196175     0.12500
H1855       H  0.69103750  0.85702385  0.16181800     0.11900
H1856       H  0.69225559  0.89975946  0.16250443     0.12200
H1857       H  0.71308292  0.83236661  0.16283769     0.14900
H1858       H  0.77037323  0.86459395  0.17692789     0.13700
H1859       H  0.75881364  0.97440583  0.16945032     0.11400
H1860       H  0.69405862  0.93544299  0.17152715     0.13400
C1861       C  0.63874358  0.99423031  0.09073597     0.19500
C1862       C  0.66441317  0.99983661  0.09505957    -0.18600
C1863       C  0.67357327  0.00868307  0.10799552    -0.10900
C1864       C  0.65710153  0.01194898  0.11702290     0.21700
C1865       C  0.63149294  0.00662447  0.11269323    -0.20200
C1866       C  0.62246723  0.99809886  0.09962306    -0.11100
C1867       C  0.66518581  0.01821829  0.13119931    -0.15200
C1868       C  0.69237943  0.03400097  0.13499950    -0.29100
C1869       C  0.62805487  0.98069265  0.07759404    -0.03400
C1870       C  0.60903467  0.98145973  0.07041780    -0.39900
H1871       H  0.67707158  0.99649081  0.08849338     0.12900
H1872       H  0.69291912  0.01157970  0.11105724     0.12500
H1873       H  0.61819966  0.00852937  0.11951194     0.11900
H1874       H  0.60217207  0.99318146  0.09671971     0.12200
H1875       H  0.64850617  0.00855507  0.13860906     0.14900
H1876       H  0.70896782  0.04471453  0.12758212     0.13700
H1877       H  0.63599703  0.96892557  0.07374381     0.11400
H1878       H  0.60265647  0.99510571  0.07335945     0.13400
C1879       C  0.74882851  0.88323028  0.33266279     0.19500
C1880       C  0.76951748  0.90948281  0.32694021    -0.18600
C1881       C  0.76632485  0.93173196  0.32691951    -0.10900
C1882       C  0.74234045  0.92813506  0.33273229     0.21700
C1883       C  0.72209906  0.90214676  0.33881318    -0.20200
C1884       C  0.72524126  0.87988991  0.33878355    -0.11100
C1885       C  0.73825274  0.95127074  0.33315702    -0.15200
C1886       C  0.75056034  0.97306752  0.32458307    -0.29100
C1887       C  0.75264113  0.85992196  0.33231474    -0.03400
C1888       C  0.73063819  0.83241583  0.33216031    -0.39900
H1889       H  0.78810313  0.91270680  0.32237762     0.12900
H1890       H  0.78295084  0.95177454  0.32257057     0.12500
H1891       H  0.70373500  0.89902527  0.34358266     0.11900
H1892       H  0.70938450  0.86029721  0.34374353     0.12200
H1893       H  0.72402725  0.94994070  0.34064265     0.14900
H1894       H  0.76372322  0.97422362  0.31660015     0.13700
H1895       H  0.77399940  0.86552925  0.33159557     0.11400
H1896       H  0.70918109  0.82655422  0.33209143     0.13400
C1897       C  0.65319370  0.99759528  0.41091896     0.19500
C1898       C  0.68051522  0.00699616  0.40699438    -0.18600
C1899       C  0.69004782  0.01642303  0.39411939    -0.10900
C1900       C  0.67233991  0.01649857  0.38469103     0.21700
C1901       C  0.64493281  0.00716750  0.38860784    -0.20200
C1902       C  0.63547000  0.99800380  0.40162639    -0.11100
C1903       C  0.68108032  0.02342294  0.37052183    -0.15200
C1904       C  0.70838110  0.03996201  0.36670718    -0.29100
C1905       C  0.64350037  0.98524057  0.42438824    -0.03400
C1906       C  0.62375711  0.98515175  0.43154021    -0.39900
H1907       H  0.69445394  0.00651113  0.41388606     0.12900
H1908       H  0.71088306  0.02234246  0.39149244     0.12500
H1909       H  0.63065144  0.00649349  0.38151314     0.11900
H1910       H  0.61401924  0.99022431  0.40423186     0.12200
H1911       H  0.66467999  0.01339155  0.36304545     0.14900
H1912       H  0.72485779  0.05097704  0.37408732     0.13700
H1913       H  0.65430927  0.97693000  0.42883819     0.11400
H1914       H  0.61457128  0.99566868  0.42773595     0.13400
C1915       C  0.69374403  0.02939676  0.23798573     0.19500
C1916       C  0.68488964  0.00740387  0.24709840    -0.18600
C1917       C  0.68879779  0.01300205  0.26066934    -0.10900
C1918       C  0.70187706  0.04089248  0.26546944     0.21700
C1919       C  0.71027937  0.06281476  0.25637800    -0.20200
C1920       C  0.70613951  0.05717631  0.24279509    -0.11100
C1921       C  0.71011568  0.04828193  0.27959440    -0.15200
C1922       C  0.69724086  0.02950305  0.28957852    -0.29100
C1923       C  0.69323261  0.02317939  0.22365186    -0.03400
C1924       C  0.69529153  0.03999554  0.21381378    -0.39900
H1925       H  0.67579057  0.98593646  0.24367293     0.12900
H1926       H  0.68288249  0.99563297  0.26726525     0.12500
H1927       H  0.72086510  0.08455393  0.25977284     0.11900
H1928       H  0.71405589  0.07488208  0.23611633     0.12200
H1929       H  0.72851439  0.06962967  0.28173197     0.14900
H1930       H  0.67824867  0.00841585  0.28775009     0.13700
H1931       H  0.69279552  0.00457570  0.22112059     0.11400
H1932       H  0.69448312  0.05798453  0.21592208     0.13400
C1933       C  0.91281114  0.22445891  0.32910508     0.19500
C1934       C  0.90673208  0.19970018  0.33525899    -0.18600
C1935       C  0.87969305  0.17433860  0.33462769    -0.10900
C1936       C  0.85806391  0.17310827  0.32771166     0.21700
C1937       C  0.86390584  0.19787060  0.32171880    -0.20200
C1938       C  0.89102837  0.22325027  0.32227748    -0.11100
C1939       C  0.82911597  0.14651537  0.32685514    -0.15200
C1940       C  0.82400934  0.12061133  0.32705966    -0.29100
C1941       C  0.94216260  0.25068702  0.33000795    -0.03400
C1942       C  0.95006611  0.27678902  0.32640176    -0.39900
H1943       H  0.92296725  0.19999100  0.34065677     0.12900
H1944       H  0.87573657  0.15590352  0.33974350     0.12500
H1945       H  0.84752323  0.19745224  0.31639556     0.11900
H1946       H  0.89464177  0.24152805  0.31719930     0.12200
H1947       H  0.81161965  0.14833592  0.32563405     0.14900
H1948       H  0.84139438  0.11848491  0.32753748     0.13700
H1949       H  0.95804150  0.24843841  0.33411947     0.11400
H1950       H  0.93493897  0.28027851  0.32254969     0.13400
C1951       C  0.08267698  0.44803141  0.41090478     0.19500
C1952       C  0.06832976  0.41925469  0.40748817    -0.18600
C1953       C  0.05953761  0.41020712  0.39453182    -0.10900
C1954       C  0.06522495  0.42985084  0.38456543     0.21700
C1955       C  0.07937370  0.45868695  0.38798511    -0.20200
C1956       C  0.08778328  0.46771047  0.40107745    -0.11100
C1957       C  0.05948557  0.42089841  0.37044589    -0.15200
C1958       C  0.03805427  0.39442732  0.36686914    -0.29100
C1959       C  0.09478396  0.45691391  0.42437070    -0.03400
C1960       C  0.09944483  0.47972345  0.43085645    -0.39900
H1961       H  0.06456881  0.40376325  0.41482372     0.12900
H1962       H  0.04962779  0.38798708  0.39224348     0.12500
H1963       H  0.08447184  0.47431204  0.38046056     0.11900
H1964       H  0.09945745  0.49017070  0.40334217     0.12200
H1965       H  0.07447918  0.43556874  0.36304029     0.14900
H1966       H  0.02249179  0.38021729  0.37420376     0.13700
H1967       H  0.09961880  0.44348691  0.42928844     0.11400
H1968       H  0.09224679  0.49183904  0.42673415     0.13400
C1969       C  0.84810051  0.15866101  0.18053119     0.19500
C1970       C  0.85317085  0.18372597  0.18587030    -0.18600
C1971       C  0.88067824  0.20836863  0.18689241    -0.10900
C1972       C  0.90377739  0.20856407  0.18238833     0.21700
C1973       C  0.89878345  0.18330670  0.17735014    -0.20200
C1974       C  0.87126004  0.15864489  0.17632561    -0.11100
C1975       C  0.93325608  0.23462867  0.18259879    -0.15200
C1976       C  0.93977719  0.26116495  0.18242954    -0.29100
C1977       C  0.81836765  0.13349041  0.17908084    -0.03400
C1978       C  0.81067245  0.10662296  0.17799295    -0.39900
H1979       H  0.83573559  0.18425465  0.18926402     0.12900
H1980       H  0.88366449  0.22709224  0.19124757     0.12500
H1981       H  0.91620481  0.18285984  0.17385168     0.11900
H1982       H  0.86829745  0.13999764  0.17189467     0.12200
H1983       H  0.95023470  0.23185107  0.18200012     0.14900
H1984       H  0.92326906  0.26459632  0.18238013     0.13700
H1985       H  0.80201162  0.13720557  0.17932367     0.11400
H1986       H  0.82631705  0.10201246  0.17839230     0.13400
C1987       C  0.07642921  0.42531492  0.09494915     0.19500
C1988       C  0.07344689  0.40073418  0.09947157    -0.18600
C1989       C  0.06401638  0.39071020  0.11228926    -0.10900
C1990       C  0.05756745  0.40523405  0.12104779     0.21700
C1991       C  0.06060972  0.42995588  0.11657703    -0.20200
C1992       C  0.06970353  0.43980870  0.10359862    -0.11100
C1993       C  0.04988301  0.39604157  0.13509857    -0.15200
C1994       C  0.03598460  0.36856602  0.13871631    -0.29100
C1995       C  0.08920672  0.43634904  0.08165379    -0.03400
C1996       C  0.08490660  0.45254921  0.07394697    -0.39900
H1997       H  0.07893491  0.38944215  0.09310356     0.12900
H1998       H  0.06292426  0.37218527  0.11546170     0.12500
H1999       H  0.05623304  0.44181160  0.12318340     0.11900
H2000       H  0.07248478  0.45926100  0.10054544     0.12200
H2001       H  0.05635667  0.41222491  0.14260226     0.14900
H2002       H  0.02801729  0.35223593  0.13116560     0.13700
H2003       H  0.10225294  0.42988162  0.07788486     0.11400
H2004       H  0.06994240  0.45710672  0.07699946     0.13400
C2005       C  0.05060992  0.39282976  0.26795154     0.19500
C2006       C  0.02788801  0.38635594  0.25994965    -0.18600
C2007       C  0.02903233  0.38390913  0.24621690    -0.10900
C2008       C  0.05310900  0.38808905  0.24021982     0.21700
C2009       C  0.07654800  0.39657392  0.24811628    -0.20200
C2010       C  0.07550567  0.39927669  0.26179590    -0.11100
C2011       C  0.05322658  0.38014815  0.22624034    -0.15200
C2012       C  0.03678259  0.37941645  0.21667692    -0.29100
C2013       C  0.04676280  0.39038475  0.28259126    -0.03400
C2014       C  0.06109484  0.38412160  0.29046515    -0.39900
H2015       H  0.00855895  0.38157196  0.26439682     0.12900
H2016       H  0.01042240  0.37701519  0.24048041     0.12500
H2017       H  0.09545056  0.40020400  0.24372736     0.11900
H2018       H  0.09399084  0.40562054  0.26749645     0.12200
H2019       H  0.06695438  0.37358321  0.22383334     0.14900
H2020       H  0.02413666  0.38744947  0.21851027     0.13700
H2021       H  0.02948210  0.39039041  0.28679321     0.11400
H2022       H  0.07719534  0.38219393  0.28632668     0.13400
C2023       C  0.14508263  0.34364183  0.17374003     0.19500
C2024       C  0.17057586  0.36695161  0.16851928    -0.18600
C2025       C  0.19435345  0.36656668  0.16749268    -0.10900
C2026       C  0.19338883  0.34286502  0.17185355     0.21700
C2027       C  0.16775962  0.31922448  0.17679780    -0.20200
C2028       C  0.14386401  0.31958934  0.17782280    -0.11100
C2029       C  0.21869260  0.34224293  0.17140295    -0.15200
C2030       C  0.24521774  0.36604504  0.17182284    -0.29100
C2031       C  0.12081091  0.34591007  0.17478034    -0.03400
C2032       C  0.09412289  0.32445711  0.17797614    -0.39900
H2033       H  0.17213751  0.38565821  0.16516522     0.12900
H2034       H  0.21331487  0.38481858  0.16315420     0.12500
H2035       H  0.16637844  0.30061255  0.18013468     0.11900
H2036       H  0.12483097  0.30116744  0.18198694     0.12200
H2037       H  0.21541461  0.32166045  0.17145651     0.14900
H2038       H  0.24884941  0.38670556  0.17260084     0.13700
H2039       H  0.12515626  0.36652978  0.17252149     0.11400
H2040       H  0.08849372  0.30334716  0.18007818     0.13400
C2041       C  0.35710238  0.43396108  0.11489265     0.19500
C2042       C  0.35873600  0.42387299  0.10254106    -0.18600
C2043       C  0.35710894  0.43571630  0.09088087    -0.10900
C2044       C  0.35351350  0.45784362  0.09132672     0.21700
C2045       C  0.35301132  0.46873965  0.10367850    -0.20200
C2046       C  0.35498871  0.45708251  0.11537631    -0.11100
C2047       C  0.34701869  0.46753896  0.07922327    -0.15200
C2048       C  0.35560476  0.46601681  0.06707849    -0.29100
C2049       C  0.35313833  0.41702598  0.12679418    -0.03400
C2050       C  0.35880263  0.42719252  0.13922241    -0.39900
H2051       H  0.36001925  0.40587666  0.10190952     0.12900
H2052       H  0.35691723  0.42626808  0.08159221     0.12500
H2053       H  0.35004198  0.48563715  0.10428523     0.11900
H2054       H  0.35303576  0.46500025  0.12471778     0.12200
H2055       H  0.33451880  0.47596978  0.08036307     0.14900
H2056       H  0.37031614  0.46025869  0.06593105     0.13700
H2057       H  0.34373250  0.39454665  0.12523807     0.11400
H2058       H  0.36962681  0.44977927  0.14108985     0.13400
C2059       C  0.12155102  0.31026230  0.33891067     0.19500
C2060       C  0.12701554  0.29633430  0.32933079    -0.18600
C2061       C  0.15162171  0.29720482  0.32991991    -0.10900
C2062       C  0.17120420  0.31195822  0.34021050     0.21700
C2063       C  0.16445510  0.32384859  0.35033139    -0.20200
C2064       C  0.13993052  0.32298968  0.34972919    -0.11100
C2065       C  0.19967217  0.31747155  0.34044951    -0.15200
C2066       C  0.21091698  0.31136191  0.33052063    -0.29100
C2067       C  0.09745148  0.31242794  0.33699758    -0.03400
C2068       C  0.09806816  0.33484805  0.34143046    -0.39900
H2069       H  0.11287053  0.28585245  0.32104834     0.12900
H2070       H  0.15534901  0.28696793  0.32208285     0.12500
H2071       H  0.17875227  0.33481903  0.35852916     0.11900
H2072       H  0.13576973  0.33281575  0.35762385     0.12200
H2073       H  0.21303183  0.32937736  0.34885435     0.14900
H2074       H  0.19865154  0.29965466  0.32188565     0.13700
H2075       H  0.08014218  0.29677744  0.33072802     0.11400
H2076       H  0.11612627  0.35164863  0.34694341     0.13400
C2077       C  0.34186000  0.44758013  0.40941871     0.19500
C2078       C  0.33516572  0.45331513  0.39709309    -0.18600
C2079       C  0.33390152  0.43872632  0.38573371    -0.10900
C2080       C  0.33912430  0.41778608  0.38642922     0.21700
C2081       C  0.34618708  0.41224296  0.39870043    -0.20200
C2082       C  0.34775753  0.42708902  0.41007576    -0.11100
C2083       C  0.33421872  0.39939501  0.37487167    -0.15200
C2084       C  0.33727961  0.40812380  0.36225142    -0.29100
C2085       C  0.34015093  0.46181963  0.42135052    -0.03400
C2086       C  0.35164923  0.46363588  0.43320449    -0.39900
H2087       H  0.33021203  0.46871965  0.39629014     0.12900
H2088       H  0.32753291  0.44298725  0.37655648     0.12500
H2089       H  0.34990803  0.39592449  0.39953653     0.11900
H2090       H  0.35241745  0.42156031  0.41938796     0.12200
H2091       H  0.32685015  0.37758179  0.37685100     0.14900
H2092       H  0.34611590  0.43023980  0.36010803     0.13700
H2093       H  0.32923722  0.47188313  0.42015017     0.11400
H2094       H  0.36478101  0.45602906  0.43438004     0.13400
C2095       C  0.33175414  0.38255652  0.23798104     0.19500
C2096       C  0.31120504  0.38111937  0.24603497    -0.18600
C2097       C  0.31336718  0.38179611  0.25978207    -0.10900
C2098       C  0.33617035  0.38374292  0.26586661     0.21700
C2099       C  0.35704999  0.38568102  0.25781260    -0.20200
C2100       C  0.35500138  0.38526747  0.24399649    -0.11100
C2101       C  0.33681274  0.38023672  0.28040986    -0.15200
C2102       C  0.32260720  0.38527043  0.28917458    -0.29100
C2103       C  0.32655203  0.37852556  0.22351546    -0.03400
C2104       C  0.34660804  0.38713654  0.21418837    -0.39900
H2105       H  0.29292697  0.37869454  0.24166659     0.12900
H2106       H  0.29631648  0.37929738  0.26554537     0.12500
H2107       H  0.37458037  0.38673133  0.26222879     0.11900
H2108       H  0.37093044  0.38578000  0.23812096     0.12200
H2109       H  0.34800085  0.37152984  0.28392171     0.14900
H2110       H  0.31234490  0.39513227  0.28599511     0.13700
H2111       H  0.30481681  0.36825257  0.22036500     0.11400
H2112       H  0.36875093  0.39898750  0.21684790     0.13400
C2113       C  0.30568373  0.23565123  0.33350897     0.19500
C2114       C  0.28320236  0.20770857  0.33675828    -0.18600
C2115       C  0.28673242  0.18566779  0.33667393    -0.10900
C2116       C  0.31292860  0.19103405  0.33316933     0.21700
C2117       C  0.33563839  0.21910750  0.33031297    -0.20200
C2118       C  0.33212014  0.24115363  0.33040184    -0.11100
C2119       C  0.31750017  0.16818646  0.33201357    -0.15200
C2120       C  0.29654478  0.14020424  0.33141340    -0.29100
C2121       C  0.30014799  0.25788776  0.33299590    -0.03400
C2122       C  0.32034915  0.28600185  0.33188638    -0.39900
H2123       H  0.26266368  0.20282221  0.33928627     0.12900
H2124       H  0.26880245  0.16461694  0.33934297     0.12500
H2125       H  0.35609964  0.22393517  0.32764948     0.11900
H2126       H  0.35005086  0.26214128  0.32767305     0.12200
H2127       H  0.33916139  0.17484125  0.33083377     0.14900
H2128       H  0.27460948  0.13261350  0.33217565     0.13700
H2129       H  0.27823049  0.25068923  0.33358532     0.11400
H2130       H  0.34250943  0.29426403  0.33168066     0.13400
C2131       C  0.36428628  0.02479982  0.39952787     0.19500
C2132       C  0.35952122  0.04602622  0.39873335    -0.18600
C2133       C  0.35467999  0.05374477  0.38649129    -0.10900
C2134       C  0.35394657  0.03985467  0.37486188     0.21700
C2135       C  0.35853957  0.01854146  0.37571219    -0.20200
C2136       C  0.36391827  0.01124954  0.38787624    -0.11100
C2137       C  0.34589582  0.04504785  0.36189513    -0.15200
C2138       C  0.35119955  0.07014444  0.35824721    -0.29100
C2139       C  0.36782284  0.01575630  0.41262017    -0.03400
C2140       C  0.38518515  0.00768876  0.41445189    -0.39900
H2141       H  0.35936337  0.05649583  0.40761170     0.12900
H2142       H  0.35044495  0.06972706  0.38622591     0.12500
H2143       H  0.35762055  0.00723210  0.36692950     0.11900
H2144       H  0.36675856  0.99427339  0.38820117     0.12200
H2145       H  0.33514146  0.02727951  0.35502543     0.14900
H2146       H  0.36301128  0.08854679  0.36468694     0.13700
H2147       H  0.35628417  0.01619352  0.42099891     0.11400
H2148       H  0.39807390  0.00904933  0.40624602     0.13400
C2149       C  0.30814683  0.19724394  0.15999998     0.19500
C2150       C  0.33330760  0.22474269  0.16058012    -0.18600
C2151       C  0.33285996  0.24871606  0.16132738    -0.10900
C2152       C  0.30702909  0.24584992  0.16155139     0.21700
C2153       C  0.28184179  0.21834114  0.16066092    -0.20200
C2154       C  0.28230517  0.19432002  0.15991669    -0.11100
C2155       C  0.30513185  0.27051430  0.16326208    -0.15200
C2156       C  0.32760387  0.29789480  0.16419261    -0.29100
C2157       C  0.31009602  0.17253867  0.16050650    -0.03400
C2158       C  0.28834097  0.14517343  0.15857106    -0.39900
H2159       H  0.35352966  0.22771889  0.16071258     0.12900
H2160       H  0.35294114  0.26919240  0.16199605     0.12500
H2161       H  0.26161003  0.21533639  0.16083204     0.11900
H2162       H  0.26230702  0.17364226  0.15970300     0.12200
H2163       H  0.28414235  0.26580741  0.16411757     0.14900
H2164       H  0.34892150  0.30373374  0.16327890     0.13700
H2165       H  0.33052999  0.17713714  0.16307052     0.11400
H2166       H  0.26770735  0.13955861  0.15575105     0.13400
C2167       C  0.35205694  0.02010153  0.09429478     0.19500
C2168       C  0.37269720  0.04216709  0.10248303    -0.18600
C2169       C  0.36505327  0.05345321  0.11251573    -0.10900
C2170       C  0.33653066  0.04296305  0.11443444     0.21700
C2171       C  0.31608729  0.02129975  0.10611089    -0.20200
C2172       C  0.32364986  0.01002891  0.09618875    -0.11100
C2173       C  0.32664502  0.05374260  0.12477432    -0.15200
C2174       C  0.34065538  0.06711220  0.13595416    -0.29100
C2175       C  0.36072210  0.00899228  0.08344585    -0.03400
C2176       C  0.34274932  0.98324364  0.07787558    -0.39900
H2177       H  0.39477820  0.05068271  0.10110823     0.12900
H2178       H  0.38150005  0.07057567  0.11855303     0.12500
H2179       H  0.29400564  0.01298920  0.10727497     0.11900
H2180       H  0.30708387  0.99393968  0.08983459     0.12200
H2181       H  0.30536703  0.04812713  0.12359404     0.14900
H2182       H  0.36150724  0.07219597  0.13779543     0.13700
H2183       H  0.38237203  0.02234592  0.07986393     0.11400
H2184       H  0.32156050  0.96912355  0.08185190     0.13400
C2185       C  0.34026067  0.10379223  0.25862968     0.19500
C2186       C  0.33319350  0.11877112  0.25075419    -0.18600
C2187       C  0.33388485  0.11752370  0.23699761    -0.10900
C2188       C  0.34120683  0.10078661  0.23073843     0.21700
C2189       C  0.35025814  0.08741476  0.23855421    -0.20200
C2190       C  0.34964615  0.08872759  0.25240130    -0.11100
C2191       C  0.33772534  0.09570570  0.21620711    -0.15200
C2192       C  0.31613822  0.09329759  0.20981829    -0.29100
C2193       C  0.33426679  0.10181385  0.27305258    -0.03400
C2194       C  0.34565880  0.09465408  0.28232913    -0.39900
H2195       H  0.32618723  0.13078621  0.25527300     0.12900
H2196       H  0.32788110  0.12905223  0.23127198     0.12500
H2197       H  0.35629859  0.07464508  0.23396461     0.11900
H2198       H  0.35500087  0.07667802  0.25812549     0.12200
H2199       H  0.35156393  0.09182283  0.21093796     0.14900
H2200       H  0.30112597  0.09504051  0.21537154     0.13700
H2201       H  0.31898539  0.10596195  0.27616182     0.11400
H2202       H  0.36214453  0.09192674  0.27976640     0.13400
C2203       C  0.83831671  0.74682619  0.17052860     0.19500
C2204       C  0.83893287  0.72369256  0.16679062    -0.18600
C2205       C  0.86438313  0.72605333  0.16679893    -0.10900
C2206       C  0.88976262  0.75168143  0.17065168     0.21700
C2207       C  0.88888664  0.77448316  0.17468400    -0.20200
C2208       C  0.86357160  0.77212523  0.17466845    -0.11100
C2209       C  0.91762431  0.75591511  0.17088362    -0.15200
C2210       C  0.92292189  0.73785319  0.16574669    -0.29100
C2211       C  0.81097854  0.74368918  0.17061582    -0.03400
C2212       C  0.80955053  0.76611018  0.16960193    -0.39900
H2213       H  0.81970721  0.70380448  0.16380025     0.12900
H2214       H  0.86382099  0.70766538  0.16389999     0.12500
H2215       H  0.90792316  0.79429975  0.17790336     0.11900
H2216       H  0.86391079  0.79006840  0.17818713     0.12200
H2217       H  0.93505193  0.77551305  0.17535480     0.14900
H2218       H  0.90641800  0.71814017  0.16107168     0.13700
H2219       H  0.79158201  0.72243126  0.17154172     0.11400
H2220       H  0.82860614  0.78728552  0.16800455     0.13400
C2221       C  0.17304977  0.94529710  0.16687379     0.19500
C2222       C  0.14862267  0.93629273  0.15965781    -0.18600
C2223       C  0.12536056  0.90777115  0.15976102    -0.10900
C2224       C  0.12589895  0.88758872  0.16728149     0.21700
C2225       C  0.15031705  0.89660763  0.17450593    -0.20200
C2226       C  0.17355826  0.92509820  0.17439568    -0.11100
C2227       C  0.10185981  0.85697855  0.16778537    -0.15200
C2228       C  0.07534790  0.84655339  0.16396522    -0.29100
C2229       C  0.19717123  0.97593156  0.16651737    -0.03400
C2230       C  0.22383069  0.98563712  0.16967643    -0.39900
H2231       H  0.14763199  0.95138044  0.15378584     0.12900
H2232       H  0.10732987  0.90177182  0.15378963     0.12500
H2233       H  0.15132066  0.88156096  0.18040925     0.11900
H2234       H  0.19154332  0.93112877  0.18041943     0.12200
H2235       H  0.10606586  0.84238445  0.17190886     0.14900
H2236       H  0.06995202  0.86044002  0.16024782     0.13700
H2237       H  0.19294051  0.99101283  0.16315244     0.11400
H2238       H  0.22897482  0.97101044  0.17249317     0.13400
C2239       C  0.04354438  0.72510637  0.11161073     0.19500
C2240       C  0.03839279  0.73029973  0.09881072    -0.18600
C2241       C  0.05095958  0.72706729  0.08782222    -0.10900
C2242       C  0.06903555  0.71842409  0.08936438     0.21700
C2243       C  0.07416057  0.71310847  0.10215003    -0.20200
C2244       C  0.06153378  0.71631414  0.11317488    -0.11100
C2245       C  0.08407286  0.71637242  0.07796537    -0.15200
C2246       C  0.07476712  0.71222466  0.06543872    -0.29100
C2247       C  0.03143756  0.73132215  0.12294389    -0.03400
C2248       C  0.03090141  0.72360307  0.13553946    -0.39900
H2249       H  0.02498557  0.73748174  0.09730609     0.12900
H2250       H  0.04715007  0.73233387  0.07821968     0.12500
H2251       H  0.08826632  0.70675823  0.10362794     0.11900
H2252       H  0.06670935  0.71272598  0.12283751     0.12200
H2253       H  0.10336448  0.71799702  0.07993106     0.14900
H2254       H  0.05481384  0.70905761  0.06334229     0.13700
H2255       H  0.02302308  0.74354567  0.12079893     0.11400
H2256       H  0.03834222  0.71076833  0.13811349     0.13400
C2257       C  0.84746162  0.75290993  0.33258749     0.19500
C2258       C  0.84911627  0.73148971  0.32712090    -0.18600
C2259       C  0.87488884  0.73459826  0.32664906    -0.10900
C2260       C  0.89950539  0.75912684  0.33186519     0.21700
C2261       C  0.89755119  0.78003552  0.33774478    -0.20200
C2262       C  0.87184799  0.77695376  0.33817809    -0.11100
C2263       C  0.92786573  0.76468369  0.33075892    -0.15200
C2264       C  0.93238753  0.74469741  0.32814030    -0.29100
C2265       C  0.82007665  0.74955221  0.33231507    -0.03400
C2266       C  0.81827935  0.77182269  0.33205008    -0.39900
H2267       H  0.83056179  0.71265280  0.32284597     0.12900
H2268       H  0.87545827  0.71815955  0.32183907     0.12500
H2269       H  0.91609504  0.79901705  0.34193802     0.11900
H2270       H  0.87119651  0.79342462  0.34292265     0.12200
H2271       H  0.94605101  0.78648160  0.33231465     0.14900
H2272       H  0.91489535  0.72247892  0.32719038     0.13700
H2273       H  0.80085244  0.72809443  0.33170144     0.11400
H2274       H  0.83727735  0.79342203  0.33194962     0.13400
C2275       C  0.18547632  0.95246504  0.32446699     0.19500
C2276       C  0.15875168  0.94734269  0.32383228    -0.18600
C2277       C  0.13446671  0.91967292  0.32218762    -0.10900
C2278       C  0.13651991  0.89653037  0.32136817     0.21700
C2279       C  0.16322135  0.90167663  0.32220406    -0.20200
C2280       C  0.18741842  0.92925582  0.32386129    -0.11100
C2281       C  0.11157705  0.86672682  0.31968549    -0.15200
C2282       C  0.08514657  0.85738914  0.32317765    -0.29100
C2283       C  0.21094337  0.98215367  0.32565772    -0.03400
C2284       C  0.23616607  0.99035566  0.32075022    -0.39900
H2285       H  0.15673058  0.96488614  0.32431503     0.12900
H2286       H  0.11433748  0.91667015  0.32132706     0.12500
H2287       H  0.16535373  0.88420087  0.32172425     0.11900
H2288       H  0.20753659  0.93223024  0.32478724     0.12200
H2289       H  0.11550008  0.85136975  0.31628660     0.14900
H2290       H  0.08063093  0.87184605  0.32718326     0.13700
H2291       H  0.20856443  0.99792935  0.33002401     0.11400
H2292       H  0.23845829  0.97519119  0.31565029     0.13400
C2293       C  0.08021299  0.73632010  0.40342213     0.19500
C2294       C  0.06050185  0.71380042  0.39520769    -0.18600
C2295       C  0.04973798  0.71882994  0.38410039    -0.10900
C2296       C  0.05838170  0.74659983  0.38105706     0.21700
C2297       C  0.07734314  0.76894251  0.38955022    -0.20200
C2298       C  0.08818557  0.76393718  0.40059645    -0.11100
C2299       C  0.04800871  0.75334049  0.36931722    -0.15200
C2300       C  0.03658310  0.73655488  0.35857423    -0.29100
C2301       C  0.09130478  0.73019066  0.41507846    -0.03400
C2302       C  0.11662733  0.74957381  0.42047821    -0.39900
H2303       H  0.05359462  0.69225719  0.39733221     0.12900
H2304       H  0.03446251  0.70086409  0.37807579     0.12500
H2305       H  0.08397686  0.79046560  0.38758119     0.11900
H2306       H  0.10243681  0.78168947  0.40698417     0.12200
H2307       H  0.05136957  0.77396385  0.36924072     0.14900
H2308       H  0.03399427  0.71638237  0.35799439     0.13700
H2309       H  0.07857131  0.70885796  0.41920450     0.11400
H2310       H  0.13022595  0.77053180  0.41607755     0.13400
C2311       C  0.01902005  0.74590046  0.23201447     0.19500
C2312       C  0.04236923  0.76179245  0.24041389    -0.18600
C2313       C  0.03877127  0.75962501  0.25412981    -0.10900
C2314       C  0.01159286  0.74174132  0.25968144     0.21700
C2315       C  0.98830605  0.72571218  0.25129226    -0.20200
C2316       C  0.99193132  0.72757758  0.23759801    -0.11100
C2317       C  0.00652652  0.74175432  0.27403000    -0.15200
C2318       C  0.02547131  0.74690931  0.28327294    -0.29100
C2319       C  0.02311798  0.75122830  0.21759277    -0.03400
C2320       C  0.00524611  0.73218465  0.20852481    -0.39900
H2321       H  0.06336733  0.77643843  0.23634252     0.12900
H2322       H  0.05708754  0.77296715  0.26031621     0.12500
H2323       H  0.96714093  0.71219753  0.25535364     0.11900
H2324       H  0.97332708  0.71572358  0.23145769     0.12200
H2325       H  0.98661234  0.73797575  0.27705525     0.14900
H2326       H  0.04483664  0.74927872  0.28051444     0.13700
H2327       H  0.04105706  0.77201545  0.21436330     0.11400
H2328       H  0.98811223  0.71078836  0.21144235     0.13400
loop_ 
_geom_bond_atom_site_label_1 
_geom_bond_atom_site_label_2 
_geom_bond_distance 
_geom_bond_site_symmetry_2 
_ccdc_geom_bond_type 
O1            C4   1.264       .  A
O1           Cd6   2.470       .  S
C2           O11   1.267       .  A
C2            O7   1.266       .  A
C2         C2264   1.476       .  S
O3            C9   1.265       .  A
O3           Cd6   2.454       .  S
C4           O12   1.264       .  A
C4         C2282   1.472       .  S
C5           O10   1.265       .  A
C5            O8   1.262       .  A
C5         C2300   1.476       .  S
Cd6          O13   2.474       .  S
Cd6          O12   2.447       .  S
Cd6          O11   2.473   1_455  S
Cd6           O7   2.447   1_455  S
Cd6          O10   2.495       .  S
Cd6           O8   2.444       .  S
C9           O13   1.264       .  A
C9         C2318   1.473       .  S
O14          C17   1.265       .  A
O14         Cd19   2.456   1_655  S
C15          O24   1.266       .  A
C15          O20   1.266       .  A
C15        C2228   1.474       .  S
O16          C22   1.264   1_655  A
O16         Cd19   2.476   1_655  S
C17          O25   1.265       .  A
C17        C2210   1.477       .  S
C18          O23   1.264       .  A
C18          O21   1.264       .  A
C18        C2248   1.477       .  S
Cd19         O26   2.453       .  S
Cd19         O25   2.481   1_455  S
Cd19         O24   2.448       .  S
Cd19         O20   2.468       .  S
Cd19         O23   2.481       .  S
Cd19         O21   2.458       .  S
C22          O26   1.263       .  A
C22        C2320   1.472       .  S
O27          C30   1.265       .  A
O27         Cd32   2.481       .  S
C28          O37   1.264       .  A
C28          O33   1.267       .  A
C28        C2230   1.476   1_545  S
O29          C35   1.267       .  A
O29         Cd32   2.500       .  S
C30          O38   1.266       .  A
C30        C2158   1.480       .  S
C31          O36   1.268       .  A
C31          O34   1.263       .  A
C31        C2192   1.476       .  S
Cd32         O39   2.439       .  S
Cd32         O38   2.474       .  S
Cd32         O37   2.459       .  S
Cd32         O33   2.485       .  S
Cd32         O36   2.520       .  S
Cd32         O34   2.435       .  S
C35          O39   1.264       .  A
C35        C2174   1.480       .  S
O40          C43   1.267       .  A
O40         Cd45   2.475       .  S
C41          O50   1.267       .  A
C41          O46   1.266       .  A
C41        C2120   1.475       .  S
O42          C48   1.262       .  A
O42         Cd45   2.466       .  S
C43          O51   1.264       .  A
C43        C2284   1.470   1_545  S
C44          O49   1.266       .  A
C44          O47   1.263       .  A
C44        C2194   1.481       .  S
Cd45         O52   2.499       .  S
Cd45         O51   2.439       .  S
Cd45         O50   2.457       .  S
Cd45         O46   2.460       .  S
Cd45         O49   2.512       .  S
Cd45         O47   2.455       .  S
C48          O52   1.263       .  A
C48        C2138   1.478       .  S
O53          C56   1.266       .  A
O53         Cd58   2.475       .  S
C54          O63   1.264       .  A
C54          O59   1.264       .  A
C54        C2066   1.477       .  S
O55          C61   1.265       .  A
O55         Cd58   2.485       .  S
C56          O64   1.264       .  A
C56        C2122   1.476       .  S
C57          O62   1.264       .  A
C57          O60   1.265       .  A
C57        C2102   1.478       .  S
Cd58         O65   2.476       .  S
Cd58         O64   2.467       .  S
Cd58         O63   2.462       .  S
Cd58         O59   2.483       .  S
Cd58         O62   2.479       .  S
Cd58         O60   2.488       .  S
C61          O65   1.264       .  A
C61        C2084   1.479       .  S
O66          C69   1.267       .  A
O66         Cd71   2.491       .  S
C67          O76   1.263       .  A
C67          O72   1.269       .  A
C67        C2030   1.474       .  S
O68          C74   1.267       .  A
O68         Cd71   2.507       .  S
C69          O77   1.265       .  A
C69        C2156   1.478       .  S
C70          O75   1.267       .  A
C70          O73   1.265       .  A
C70        C2050   1.478       .  S
Cd71         O78   2.447       .  S
Cd71         O77   2.458       .  S
Cd71         O76   2.438       .  S
Cd71         O72   2.494       .  S
Cd71         O75   2.495       .  S
Cd71         O73   2.442       .  S
C74          O78   1.264       .  A
C74        C2104   1.480       .  S
O79          C82   1.266       .  A
O79         Cd84   2.478       .  S
C80          O89   1.264       .  A
C80          O85   1.266       .  A
C80        C1976   1.475       .  S
O81          C87   1.266       .  A
O81         Cd84   2.506       .  S
C82          O90   1.267       .  A
C82        C2032   1.479       .  S
C83          O88   1.267       .  A
C83          O86   1.262       .  A
C83        C1994   1.479       .  S
Cd84         O91   2.458       .  S
Cd84         O90   2.459       .  S
Cd84         O89   2.470   1_455  S
Cd84         O85   2.470   1_455  S
Cd84         O88   2.519       .  S
Cd84         O86   2.454       .  S
C87          O91   1.263       .  A
C87        C2012   1.480       .  S
O92          C95   1.266       .  A
O92         Cd97   2.461   1_655  S
C93         O102   1.265       .  A
C93          O98   1.267       .  A
C93        C2068   1.474       .  S
O94         C100   1.261       .  A
O94         Cd97   2.450       .  S
C95         O103   1.264       .  A
C95        C1942   1.474       .  S
C96         O101   1.268       .  A
C96          O99   1.261       .  A
C96        C1958   1.476       .  S
Cd97        O104   2.514       .  S
Cd97        O103   2.462   1_455  S
Cd97        O102   2.449       .  S
Cd97         O98   2.484       .  S
Cd97        O101   2.517       .  S
Cd97         O99   2.444       .  S
C100        O104   1.266       .  A
C100       C2014   1.476       .  S
O105        C108   1.262   1_545  A
O105       Cd110   2.460       .  S
C106        O115   1.269       .  A
C106        O111   1.265       .  A
C106       C1940   1.472       .  S
O107        C113   1.264       .  A
O107       Cd110   2.477       .  S
C108        O116   1.265       .  A
C108       C1886   1.471       .  S
C109        O114   1.268       .  A
C109        O112   1.261       .  A
C109       C1904   1.479       .  S
Cd110       O117   2.484       .  S
Cd110       O116   2.468   1_545  S
Cd110       O115   2.466       .  S
Cd110       O111   2.441       .  S
Cd110       O114   2.527       .  S
Cd110       O112   2.451       .  S
C113        O117   1.265       .  A
C113       C1922   1.479       .  S
O118        C121   1.264       .  A
O118       Cd123   2.459       .  S
C119        O128   1.266       .  A
C119        O124   1.266   1_565  A
C119       C1852   1.472       .  S
O120        C126   1.266       .  A
O120       Cd123   2.503       .  S
C121        O129   1.267       .  A
C121       C1978   1.474       .  S
C122        O127   1.267       .  A
C122        O125   1.261       .  A
C122       C1868   1.476       .  S
Cd123       O130   2.459       .  S
Cd123       O129   2.463       .  S
Cd123       O128   2.461   1_545  S
Cd123       O124   2.446       .  S
Cd123       O127   2.517       .  S
Cd123       O125   2.445       .  S
C126        O130   1.263       .  A
C126       C1924   1.480       .  S
O131        C134   1.265       .  A
O131       Cd136   2.440       .  S
C132        O141   1.263       .  A
C132        O137   1.265       .  A
C132       C1850   1.474       .  S
O133        C139   1.267       .  A
O133       Cd136   2.504       .  S
C134        O142   1.268       .  A
C134       C2212   1.474       .  S
C135        O140   1.262       .  A
C135        O138   1.264       .  A
C135       C1832   1.479       .  S
Cd136       O143   2.458       .  S
Cd136       O142   2.486       .  S
Cd136       O141   2.447       .  S
Cd136       O137   2.484       .  S
Cd136       O140   2.475       .  S
Cd136       O138   2.508       .  S
C139        O143   1.264       .  A
C139       C1814   1.481       .  S
O144        C147   1.267       .  A
O144       Cd149   2.459       .  S
C145        O154   1.264       .  A
C145        O150   1.269       .  A
C145       C1888   1.469       .  S
O146        C152   1.269       .  A
O146       Cd149   2.512       .  S
C147        O155   1.267       .  A
C147       C2266   1.475       .  S
C148        O153   1.269       .  A
C148        O151   1.261       .  A
C148       C1796   1.476       .  S
Cd149       O156   2.432       .  S
Cd149       O155   2.460       .  S
Cd149       O154   2.429       .  S
Cd149       O150   2.472       .  S
Cd149       O153   2.507       .  S
Cd149       O151   2.440       .  S
C152        O156   1.263       .  A
C152       C1834   1.480       .  S
C157        C158   1.532       .  S
C157        C163   1.534       .  S
C157        C161   1.542       .  S
C157       C1742   1.515       .  S
C158        H165   1.087       .  S
C158        C159   1.361       .  D
C159        C160   1.539       .  S
C159       C1780   1.481       .  S
C160        C164   1.537       .  S
C160        C162   1.540       .  S
C160        H166   1.109       .  S
C161        H167   1.085       .  S
C161        C162   1.375       .  D
C162       C1760   1.487       .  S
C163        H168   1.086       .  S
C163        C164   1.369       .  D
C164       C1724   1.483       .  S
C169        C170   1.538       .  S
C169        C175   1.532       .  S
C169        C173   1.535       .  S
C169       C1688   1.520       .  S
C170        H177   1.086       .  S
C170        C171   1.373       .  D
C171        C172   1.552       .  S
C171       C1706   1.496       .  S
C172        C176   1.541       .  S
C172        C174   1.534       .  S
C172        H178   1.107       .  S
C173        H179   1.086       .  S
C173        C174   1.367       .  D
C174       C1778   1.486       .  S
C175        H180   1.086       .  S
C175        C176   1.368       .  D
C176       C1670   1.487       .  S
C181        C182   1.538       .  S
C181        C187   1.537       .  S
C181        C185   1.537       .  S
C181       C1634   1.522       .  S
C182        H189   1.086       .  S
C182        C183   1.369       .  D
C183        C184   1.545       .  S
C183       C1654   1.492       .  S
C184        C188   1.537       .  S
C184        C186   1.545       .  S
C184        H190   1.106       .  S
C185        H191   1.086       .  S
C185        C186   1.365       .  D
C186       C1762   1.490       .  S
C187        H192   1.086       .  S
C187        C188   1.369       .  D
C188       C2048   1.483       .  S
C193        C194   1.532       .  S
C193        C199   1.536       .  S
C193        C197   1.545       .  S
C193       C1618   1.525       .  S
C194        H201   1.087       .  S
C194        C195   1.364       .  D
C195        C196   1.545       .  S
C195       C1708   1.490       .  S
C196        C200   1.539       .  S
C196        C198   1.542       .  S
C196        H202   1.109       .  S
C197        H203   1.081       .  S
C197        C198   1.373       .  D
C198       C1652   1.492       .  S
C199        H204   1.086       .  S
C199        C200   1.368       .  D
C200       C1816   1.487       .  S
C205        C206   1.537       .  S
C205        C211   1.531       .  S
C205        C209   1.540       .  S
C205       C1636   1.521       .  S
C206        H213   1.086       .  S
C206        C207   1.371       .  D
C207        C208   1.546       .  S
C207       C1582   1.494       .  S
C208        C212   1.545       .  S
C208        C210   1.538       .  S
C208        H214   1.110       .  S
C209        H215   1.084       .  S
C209        C210   1.371       .  D
C210       C1598   1.487       .  S
C211        H216   1.085       .  S
C211        C212   1.368       .  D
C212       C1996   1.494       .  S
C217        C218   1.530       .  S
C217        C223   1.533       .  S
C217        C221   1.534       .  S
C217       C2246   1.512       .  S
C218        H225   1.087       .  S
C218        C219   1.366       .  D
C219        C220   1.544       .  S
C219       C1546   1.486       .  S
C220        C224   1.541       .  S
C220        C222   1.542       .  S
C220        H226   1.111       .  S
C221        H227   1.084       .  S
C221        C222   1.372       .  D
C222       C1600   1.489       .  S
C223        H228   1.086       .  S
C223        C224   1.367       .  D
C224       C1562   1.483       .  S
C229        C230   1.532       .  S
C229        C235   1.530       .  S
C229        C233   1.528       .  S
C229       C1490   1.516       .  S
C230        H237   1.086       .  S
C230        C231   1.368       .  D
C231        C232   1.553       .  S
C231       C1526   1.494       .  S
C232        C236   1.555       .  S
C232        C234   1.555       .  S
C232        H238   1.109       .  S
C233        H239   1.085       .  S
C233        C234   1.368       .  D
C234       C1580   1.500       .  S
C235        H240   1.086       .  S
C235        C236   1.369       .  D
C236       C1510   1.495       .  S
C241        C242   1.539       .  S
C241        C247   1.527       .  S
C241        C245   1.540       .  S
C241       C1690   1.522       .  S
C242        H249   1.086       .  S
C242        C243   1.372       .  D
C243        C244   1.551       .  S
C243       C1528   1.498       .  S
C244        C248   1.549       .  S
C244        C246   1.539       .  S
C244        H250   1.107       .  S
C245        H251   1.086       .  S
C245        C246   1.369       .  D
C246       C1544   1.484       .  S
C247        H252   1.087       .  S
C247        C248   1.362       .  D
C248       C1472   1.486       .  S
C253        C254   1.530       .  S
C253        C259   1.531       .  S
C253        C257   1.535       .  S
C253       C1744   1.517       .  S
C254        H261   1.087       .  S
C254        C255   1.364       .  D
C255        C256   1.549       .  S
C255       C1436   1.490       .  S
C256        C260   1.552       .  S
C256        C258   1.548       .  S
C256        H262   1.109       .  S
C257        H263   1.086       .  S
C257        C258   1.368       .  D
C258       C1454   1.485       .  S
C259        H264   1.086       .  S
C259        C260   1.370       .  D
C260       C1418   1.498       .  S
C265        C266   1.538       .  S
C265        C271   1.535       .  S
C265        C269   1.536       .  S
C265       C1384   1.517       .  S
C266        H273   1.085       .  S
C266        C267   1.370       .  D
C267        C268   1.542       .  S
C267       C1400   1.493       .  S
C268        C272   1.547       .  S
C268        C270   1.542       .  S
C268        H274   1.111       .  S
C269        H275   1.086       .  S
C269        C270   1.369       .  D
C270       C1456   1.489       .  S
C271        H276   1.086       .  S
C271        C272   1.369       .  D
C272       C1508   1.495       .  S
C277        C278   1.542       .  S
C277        C283   1.529       .  S
C277        C281   1.535       .  S
C277       C1616   1.519       .  S
C278        H285   1.085       .  S
C278        C279   1.372       .  D
C279        C280   1.539       .  S
C279       C1366   1.489       .  S
C280        C284   1.543       .  S
C280        C282   1.549       .  S
C280        H286   1.108       .  S
C281        H287   1.086       .  S
C281        C282   1.367       .  D
C282       C1402   1.492       .  S
C283        H288   1.086       .  S
C283        C284   1.366       .  D
C284       C1870   1.488       .  S
C289        C290   1.532       .  S
C289        C295   1.531       .  S
C289        C293   1.538       .  S
C289       C2176   1.514       .  S
C290        H297   1.086       .  S
C290        C291   1.368       .  D
C291        C292   1.549       .  S
C291       C1364   1.486       .  S
C292        C296   1.542       .  S
C292        C294   1.543       .  S
C292        H298   1.110       .  S
C293        H299   1.085   1_565  S
C293        C294   1.371       .  D
C294       C1438   1.494       .  S
C295        H300   1.087       .  S
C295        C296   1.363       .  D
C296       C1564   1.483       .  S
C301        C302   1.543       .  S
C301        C307   1.533       .  S
C301        C305   1.543       .  S
C301       C1346   1.526       .  S
C302        H309   1.086       .  S
C302        C303   1.369       .  D
C303        C304   1.543       .  S
C303       C1328   1.493       .  S
C304        C308   1.544       .  S
C304        C306   1.538       .  S
C304        H310   1.109       .  S
C305        H311   1.085       .  S
C305        C306   1.372       .  D
C306       C1312   1.488       .  S
C307        H312   1.085       .  S
C307        C308   1.367       .  D
C308       C1292   1.494       .  S
C313        C314   1.531       .  S
C313        C319   1.533       .  S
C313        C317   1.533       .  S
C313       C1238   1.515       .  S
C314        H321   1.087       .  S
C314        C315   1.363       .  D
C315        C316   1.548       .  S
C315       C1330   1.487       .  S
C316        C320   1.547       .  S
C316        C318   1.549       .  S
C316        H322   1.110       .  S
C317        H323   1.086       .  S
C317        C318   1.369       .  D
C318       C1256   1.488       .  S
C319        H324   1.086       .  S
C319        C320   1.368       .  D
C320       C1274   1.490       .  S
C325        C326   1.539       .  S
C325        C331   1.531       .  S
C325        C329   1.541       .  S
C325       C1204   1.521       .  S
C326        H333   1.085       .  S
C326        C327   1.370       .  D
C327        C328   1.542       .  S
C327       C1258   1.491   1_565  S
C328        C332   1.544       .  S
C328        C330   1.546       .  S
C328        H334   1.107       .  S
C329        H335   1.086       .  S
C329        C330   1.369       .  D
C330       C1220   1.493       .  S
C331        H336   1.085       .  S
C331        C332   1.367       .  D
C332       C1906   1.495       .  S
C337        C338   1.532   1_565  S
C337        C343   1.534       .  S
C337        C341   1.532       .  S
C337       C2140   1.513   1_565  S
C338        H345   1.086       .  S
C338        C339   1.368       .  D
C339        C340   1.548   1_545  S
C339       C1310   1.487       .  S
C340        C344   1.544       .  S
C340        C342   1.547       .  S
C340        H346   1.109       .  S
C341        H347   1.087       .  S
C341        C342   1.365       .  D
C342       C1222   1.486       .  S
C343        H348   1.086       .  S
C343        C344   1.369       .  D
C344       C1186   1.490       .  S
C349        C350   1.539       .  S
C349        C355   1.538       .  S
C349        C353   1.535       .  S
C349       C1348   1.524       .  S
C350        H357   1.086       .  S
C350        C351   1.370       .  D
C351        C352   1.545       .  S
C351       C1148   1.492       .  S
C352        C356   1.538       .  S
C352        C354   1.544       .  S
C352        H358   1.109       .  S
C353        H359   1.084       .  S
C353        C354   1.373       .  D
C354       C1168   1.491       .  S
C355        H360   1.086       .  S
C355        C356   1.367       .  D
C356       C1130   1.488       .  S
C361        C362   1.533       .  S
C361        C367   1.530       .  S
C361        C365   1.531       .  S
C361       C1094   1.516       .  S
C362        H369   1.086       .  S
C362        C363   1.367       .  D
C363        C364   1.549       .  S
C363       C1166   1.487       .  S
C364        C368   1.547       .  S
C364        C366   1.549       .  S
C364        H370   1.105       .  S
C365        H371   1.086       .  S
C365        C366   1.366       .  D
C366       C1114   1.488       .  S
C367        H372   1.087       .  S
C367        C368   1.365       .  D
C368       C1076   1.484       .  S
C373        C374   1.535       .  S
C373        C379   1.533       .  S
C373        C377   1.530       .  S
C373       C1042   1.516       .  S
C374        H381   1.086       .  S
C374        C375   1.372       .  D
C375        C376   1.552       .  S
C375       C1150   1.496       .  S
C376        C380   1.546       .  S
C376        C378   1.542       .  S
C376        H382   1.106       .  S
C377        H383   1.087       .  S
C377        C378   1.360       .  D
C378       C1060   1.480       .  S
C379        H384   1.085       .  S
C379        C380   1.371       .  D
C380       C2086   1.492       .  S
C385        C386   1.535       .  S
C385        C391   1.530       .  S
C385        C389   1.536       .  S
C385       C1202   1.520       .  S
C386        H393   1.086       .  S
C386        C387   1.367       .  D
C387        C388   1.536       .  S
C387       C1058   1.486       .  S
C388        C392   1.549       .  S
C388        C390   1.552       .  S
C388        H394   1.104       .  S
C389        H395   1.086       .  S
C389        C390   1.371       .  D
C390       C1112   1.495       .  S
C391        H396   1.087       .  S
C391        C392   1.365       .  D
C392       C1798   1.488       .  S
C397        C398   1.537       .  S
C397        C403   1.531       .  S
C397        C401   1.534       .  S
C397       C1040   1.517       .  S
C398        H405   1.086       .  S
C398        C399   1.367       .  D
C399        C400   1.549       .  S
C399       C1022   1.494       .  S
C400        C404   1.542       .  S
C400        C402   1.543       .  S
C400        H406   1.108       .  S
C401        H407   1.085       .  S
C401        C402   1.371       .  D
C402       C1004   1.490       .  S
C403        H408   1.086       .  S
C403        C404   1.366       .  D
C404       C1960   1.488       .  S
C409        C410   1.530       .  S
C409        C415   1.529       .  S
C409        C413   1.532       .  S
C409       C2302   1.511       .  S
C410        H417   1.087       .  S
C410        C411   1.369       .  D
C411        C412   1.555       .  S
C411       C1024   1.490       .  S
C412        C416   1.548       .  S
C412        C414   1.544       .  S
C412        H418   1.109       .  S
C413        H419   1.086       .  S
C413        C414   1.366       .  D
C414        C986   1.486       .  S
C415        H420   1.087       .  S
C415        C416   1.363       .  D
C416       C1184   1.484       .  S
C421        C422   1.534       .  S
C421        C427   1.533       .  S
C421        C425   1.531       .  S
C421        C950   1.515       .  S
C422        H429   1.087       .  S
C422        C423   1.361       .  D
C423        C424   1.543       .  S
C423       C1006   1.483       .  S
C424        C428   1.548       .  S
C424        C426   1.550       .  S
C424        H430   1.107       .  S
C425        H431   1.086       .  S
C425        C426   1.368       .  D
C426        C968   1.488       .  S
C427        H432   1.086       .  S
C427        C428   1.370       .  D
C428       C1276   1.489       .  S
C433        C434   1.538       .  S
C433        C439   1.530       .  S
C433        C437   1.537       .  S
C433       C1096   1.513       .  S
C434        H441   1.086       .  S
C434        C435   1.371       .  D
C435        C436   1.540       .  S
C435        C988   1.484       .  S
C436        C440   1.541       .  S
C436        C438   1.547       .  S
C436        H442   1.108       .  S
C437        H443   1.086       .  S
C437        C438   1.365       .  D
C438        C970   1.490       .  S
C439        H444   1.086       .  S
C439        C440   1.366       .  D
C440        C932   1.485       .  S
O445        C448   1.263       .  A
O445       Cd450   2.452       .  S
C446        O455   1.263       .  A
C446        O451   1.265       .  A
C446        C878   1.471       .  S
O447        C453   1.265       .  A
O447       Cd450   2.476       .  S
C448        O456   1.267       .  A
C448        C896   1.473       .  S
C449        O454   1.263   1_455  A
C449        O452   1.266       .  A
C449        C914   1.476       .  S
Cd450       O457   2.473       .  S
Cd450       O456   2.475       .  S
Cd450       O455   2.459   1_455  S
Cd450       O451   2.467   1_455  S
Cd450       O454   2.459   1_455  S
Cd450       O452   2.494       .  S
C453        O457   1.265       .  A
C453        C934   1.477       .  S
O458        C461   1.265       .  A
O458       Cd463   2.466       .  S
C459        O468   1.266       .  A
C459        O464   1.263   1_655  A
C459        C842   1.475       .  S
O460        C466   1.264       .  A
O460       Cd463   2.457       .  S
C461        O469   1.266       .  A
C461        C862   1.477       .  S
C462        O467   1.265   1_455  A
C462        O465   1.264       .  A
C462       C1474   1.486   1_455  S
Cd463       O470   2.495       .  S
Cd463       O469   2.478       .  S
Cd463       O468   2.479   1_455  S
Cd463       O464   2.467       .  S
Cd463       O467   2.513   1_455  S
Cd463       O465   2.485       .  S
C466        O470   1.266       .  A
C466        C916   1.480       .  S
O471        C474   1.268       .  A
O471       Cd476   2.451       .  S
C472        O481   1.264       .  A
C472        O477   1.263       .  A
C472        C806   1.478       .  S
O473        C479   1.265       .  A
O473       Cd476   2.506       .  S
C474        O482   1.268       .  A
C474        C898   1.474   1_545  S
C475        O480   1.269       .  A
C475        O478   1.261       .  A
C475       C1294   1.480       .  S
Cd476       O483   2.488       .  S
Cd476       O482   2.454       .  S
Cd476       O481   2.473       .  S
Cd476       O477   2.486       .  S
Cd476       O480   2.536       .  S
Cd476       O478   2.441       .  S
C479        O483   1.262       .  A
C479        C824   1.483       .  S
O484        C487   1.266       .  A
O484       Cd489   2.485       .  S
C485        O494   1.267       .  A
C485        O490   1.266       .  A
C485        C790   1.480       .  S
O486        C492   1.266       .  A
O486       Cd489   2.516       .  S
C487        O495   1.265       .  A
C487        C860   1.480   1_545  S
C488        O493   1.266       .  A
C488        O491   1.264       .  A
C488        C826   1.487       .  S
Cd489       O496   2.499       .  S
Cd489       O495   2.475       .  S
Cd489       O494   2.461       .  S
Cd489       O490   2.482       .  S
Cd489       O493   2.513       .  S
Cd489       O491   2.489       .  S
C492        O496   1.264       .  A
C492       C1420   1.488       .  S
O497        C500   1.270       .  A
O497       Cd502   2.475       .  S
C498        O507   1.264       .  A
C498        O503   1.270       .  A
C498        C808   1.474       .  S
O499        C505   1.270       .  A
O499       Cd502   2.495       .  S
C500        O508   1.265       .  A
C500        C754   1.476       .  S
C501        O506   1.272       .  A
C501        O504   1.262       .  A
C501        C770   1.475       .  S
Cd502       O509   2.447       .  S
Cd502       O508   2.447       .  S
Cd502       O507   2.434       .  S
Cd502       O503   2.487       .  S
Cd502       O506   2.517       .  S
Cd502       O504   2.418       .  S
C505        O509   1.266       .  A
C505       C1132   1.482       .  S
O510        C513   1.268       .  A
O510       Cd515   2.479       .  S
C511        O520   1.263       .  A
C511        O516   1.268       .  A
C511        C788   1.474       .  S
O512        C518   1.267       .  A
O512       Cd515   2.498       .  S
C513        O521   1.265       .  A
C513        C734   1.474       .  S
C514        O519   1.267       .  A
C514        O517   1.265       .  A
C514       C1726   1.476       .  S
Cd515       O522   2.447       .  S
Cd515       O521   2.444       .  S
Cd515       O520   2.437       .  S
Cd515       O516   2.498       .  S
Cd515       O519   2.483       .  S
Cd515       O517   2.451       .  S
C518        O522   1.265       .  A
C518        C772   1.481       .  S
O523        C526   1.264       .  A
O523       Cd528   2.459       .  S
C524        O533   1.260       .  A
C524        O529   1.265       .  A
C524        C698   1.472       .  S
O525        C531   1.267       .  A
O525       Cd528   2.495       .  S
C526        O534   1.267       .  A
C526        C752   1.477       .  S
C527        O532   1.266       .  A
C527        O530   1.263       .  A
C527        C952   1.481       .  S
Cd528       O535   2.466   1_455  S
Cd528       O534   2.492       .  S
Cd528       O533   2.451   1_455  S
Cd528       O529   2.491   1_455  S
Cd528       O532   2.508       .  S
Cd528       O530   2.441       .  S
C531        O535   1.264   1_455  A
C531        C716   1.479       .  S
O536        C539   1.263       .  A
O536       Cd541   2.466       .  S
C537        O546   1.266       .  A
C537        O542   1.265       .  A
C537        C682   1.472       .  S
O538        C544   1.263       .  A
O538       Cd541   2.487       .  S
C539        O547   1.267       .  A
C539        C736   1.477       .  S
C540        O545   1.266       .  A
C540        O543   1.265       .  A
C540        C718   1.479       .  S
Cd541       O548   2.482       .  S
Cd541       O547   2.494       .  S
Cd541       O546   2.456   1_455  S
Cd541       O542   2.458   1_455  S
Cd541       O545   2.493       .  S
Cd541       O543   2.456       .  S
C544        O548   1.263       .  A
C544       C1492   1.479       .  S
O549        C552   1.267       .  A
O549       Cd554   2.456   1_565  S
C550        O559   1.265       .  A
C550        O555   1.263       .  A
C550        C700   1.474       .  S
O551        C557   1.265       .  A
O551       Cd554   2.484       .  S
C552        O560   1.265       .  A
C552        C644   1.475       .  S
C553        O558   1.264       .  A
C553        O556   1.263       .  A
C553        C662   1.478       .  S
Cd554       O561   2.476       .  S
Cd554       O560   2.464   1_545  S
Cd554       O559   2.474       .  S
Cd554       O555   2.467       .  S
Cd554       O558   2.490       .  S
Cd554       O556   2.476       .  S
C557        O561   1.263       .  A
C557       C1240   1.477       .  S
O562        C565   1.267   1_545  A
O562       Cd567   2.473       .  S
C563        O572   1.264       .  A
C563        O568   1.267       .  A
C563        C680   1.472       .  S
O564        C570   1.268       .  A
O564       Cd567   2.518       .  S
C565        O573   1.265       .  A
C565        C628   1.476       .  S
C566        O571   1.267       .  A
C566        O569   1.261       .  A
C566       C1382   1.479       .  S
Cd567       O574   2.443       .  S
Cd567       O573   2.459   1_545  S
Cd567       O572   2.449       .  S
Cd567       O568   2.470       .  S
Cd567       O571   2.506       .  S
Cd567       O569   2.462       .  S
C570        O574   1.263       .  A
C570        C664   1.482       .  S
O575        C578   1.265       .  A
O575       Cd580   2.462       .  S
C576        O585   1.266       .  A
C576        O581   1.265       .  A
C576        C646   1.473       .  S
O577        C583   1.266       .  A
O577       Cd580   2.500       .  S
C578        O586   1.267       .  A
C578        C880   1.474       .  S
C579        O584   1.264       .  A
C579        O582   1.263       .  A
C579        C608   1.476       .  S
Cd580       O587   2.459       .  S
Cd580       O586   2.463       .  S
Cd580       O585   2.463       .  S
Cd580       O581   2.455       .  S
Cd580       O584   2.475       .  S
Cd580       O582   2.483       .  S
C583        O587   1.263       .  A
C583       C1078   1.480       .  S
O588        C591   1.267       .  A
O588       Cd593   2.468       .  S
C589        O598   1.261       .  A
C589        O594   1.268       .  A
C589        C844   1.472       .  S
O590        C596   1.267       .  A
O590       Cd593   2.485       .  S
C591        O599   1.268       .  A
C591        C626   1.478       .  S
C592        O597   1.267       .  A
C592        O595   1.265       .  A
C592        C610   1.480       .  S
Cd593       O600   2.469       .  S
Cd593       O599   2.467       .  S
Cd593       O598   2.441       .  S
Cd593       O594   2.491       .  S
Cd593       O597   2.494       .  S
Cd593       O595   2.460       .  S
C596        O600   1.265       .  A
C596       C1672   1.479       .  S
C601        C609   1.485       .  S
C601        C602   1.403       .  A
C601        C606   1.407       .  A
C602        C603   1.398       .  A
C602        H611   1.083       .  S
C603        C604   1.406       .  A
C603        H612   1.083       .  S
C604        C607   1.484       .  S
C604        C605   1.404       .  A
C605        C606   1.402       .  A
C605        H613   1.083       .  S
C606        H614   1.083       .  S
C607        H615   1.087       .  S
C607        C608   1.345       .  D
C608        H616   1.087       .  S
C609        H617   1.087       .  S
C609        C610   1.346       .  D
C610        H618   1.085       .  S
C619        C627   1.489       .  S
C619        C620   1.404       .  A
C619        C624   1.408       .  A
C620        C621   1.400       .  A
C620        H629   1.082       .  S
C621        C622   1.408       .  A
C621        H630   1.081       .  S
C622        C625   1.489       .  S
C622        C623   1.404       .  A
C623        C624   1.398       .  A
C623        H631   1.083       .  S
C624        H632   1.081       .  S
C625        H633   1.086       .  S
C625        C626   1.347       .  D
C626        H634   1.083       .  S
C627        H635   1.086       .  S
C627        C628   1.347       .  D
C628        H636   1.083       .  S
C637        C645   1.487       .  S
C637        C638   1.403       .  A
C637        C642   1.407       .  A
C638        C639   1.400       .  A
C638        H647   1.083       .  S
C639        C640   1.409       .  A
C639        H648   1.080       .  S
C640        C643   1.489       .  S
C640        C641   1.403       .  A
C641        C642   1.396       .  A
C641        H649   1.083       .  S
C642        H650   1.081       .  S
C643        H651   1.087       .  S
C643        C644   1.346       .  D
C644        H652   1.082       .  S
C645        H653   1.087       .  S
C645        C646   1.346       .  D
C646        H654   1.083       .  S
C655        C663   1.487       .  S
C655        C656   1.403       .  A
C655        C660   1.407   1_545  A
C656        C657   1.397       .  A
C656        H665   1.083       .  S
C657        C658   1.407       .  A
C657        H666   1.082       .  S
C658        C661   1.489       .  S
C658        C659   1.406   1_545  A
C659        C660   1.404       .  A
C659        H667   1.083       .  S
C660        H668   1.083       .  S
C661        H669   1.087   1_545  S
C661        C662   1.348       .  D
C662        H670   1.086       .  S
C663        H671   1.087       .  S
C663        C664   1.348       .  D
C664        H672   1.085   1_545  S
C673        C681   1.487       .  S
C673        C674   1.403       .  A
C673        C678   1.408       .  A
C674        C675   1.397       .  A
C674        H683   1.084       .  S
C675        C676   1.408       .  A
C675        H684   1.081       .  S
C676        C679   1.485       .  S
C676        C677   1.402       .  A
C677        C678   1.397       .  A
C677        H685   1.084       .  S
C678        H686   1.080       .  S
C679        H687   1.087       .  S
C679        C680   1.344       .  D
C680        H688   1.085       .  S
C681        H689   1.088       .  S
C681        C682   1.345       .  D
C682        H690   1.084       .  S
C691        C699   1.487       .  S
C691        C692   1.402       .  A
C691        C696   1.408       .  A
C692        C693   1.397       .  A
C692        H701   1.084       .  S
C693        C694   1.410       .  A
C693        H702   1.079       .  S
C694        C697   1.490       .  S
C694        C695   1.404       .  A
C695        C696   1.399       .  A
C695        H703   1.083       .  S
C696        H704   1.081       .  S
C697        H705   1.087       .  S
C697        C698   1.344       .  D
C698        H706   1.083       .  S
C699        H707   1.088       .  S
C699        C700   1.345       .  D
C700        H708   1.084       .  S
C709        C717   1.489       .  S
C709        C710   1.403       .  A
C709        C714   1.407       .  A
C710        C711   1.398       .  A
C710        H719   1.084   1_455  S
C711        C712   1.410       .  A
C711        H720   1.079   1_455  S
C712        C715   1.495       .  S
C712        C713   1.406       .  A
C713        C714   1.401       .  A
C713        H721   1.083       .  S
C714        H722   1.081       .  S
C715        H723   1.087       .  S
C715        C716   1.348       .  D
C716        H724   1.083   1_455  S
C717        H725   1.087       .  S
C717        C718   1.347       .  D
C718        H726   1.084       .  S
C727        C735   1.486       .  S
C727        C728   1.401       .  A
C727        C732   1.408       .  A
C728        C729   1.397       .  A
C728        H737   1.084       .  S
C729        C730   1.409       .  A
C729        H738   1.080       .  S
C730        C733   1.490       .  S
C730        C731   1.405       .  A
C731        C732   1.401       .  A
C731        H739   1.084       .  S
C732        H740   1.082       .  S
C733        H741   1.087       .  S
C733        C734   1.346       .  D
C734        H742   1.084       .  S
C735        H743   1.087       .  S
C735        C736   1.344       .  D
C736        H744   1.086       .  S
C745        C753   1.492       .  S
C745        C746   1.404       .  A
C745        C750   1.410       .  A
C746        C747   1.398       .  A
C746        H755   1.084       .  S
C747        C748   1.408       .  A
C747        H756   1.081       .  S
C748        C751   1.491       .  S
C748        C749   1.403       .  A
C749        C750   1.400       .  A
C749        H757   1.084       .  S
C750        H758   1.080       .  S
C751        H759   1.087       .  S
C751        C752   1.346       .  D
C752        H760   1.084       .  S
C753        H761   1.087       .  S
C753        C754   1.346       .  D
C754        H762   1.083       .  S
C763        C771   1.489       .  S
C763        C764   1.403       .  A
C763        C768   1.409       .  A
C764        C765   1.396       .  A
C764        H773   1.084       .  S
C765        C766   1.408       .  A
C765        H774   1.082       .  S
C766        C769   1.491       .  S
C766        C767   1.404       .  A
C767        C768   1.404       .  A
C767        H775   1.083       .  S
C768        H776   1.082       .  S
C769        H777   1.086       .  S
C769        C770   1.345       .  D
C770        H778   1.085       .  S
C771        H779   1.087       .  S
C771        C772   1.348       .  D
C772        H780   1.084       .  S
C781        C789   1.491       .  S
C781        C782   1.402       .  A
C781        C786   1.409       .  A
C782        C783   1.395       .  A
C782        H791   1.084       .  S
C783        C784   1.409       .  A
C783        H792   1.079       .  S
C784        C787   1.495       .  S
C784        C785   1.406       .  A
C785        C786   1.403       .  A
C785        H793   1.083       .  S
C786        H794   1.080       .  S
C787        H795   1.087       .  S
C787        C788   1.347       .  D
C788        H796   1.082       .  S
C789        H797   1.087       .  S
C789        C790   1.347       .  D
C790        H798   1.083       .  S
C799        C807   1.488       .  S
C799        C800   1.403       .  A
C799        C804   1.407       .  A
C800        C801   1.401       .  A
C800        H809   1.083       .  S
C801        C802   1.410       .  A
C801        H810   1.079       .  S
C802        C805   1.491       .  S
C802        C803   1.404       .  A
C803        C804   1.397       .  A
C803        H811   1.084       .  S
C804        H812   1.082       .  S
C805        H813   1.087       .  S
C805        C806   1.347       .  D
C806        H814   1.083       .  S
C807        H815   1.086       .  S
C807        C808   1.345       .  D
C808        H816   1.085       .  S
C817        C825   1.492       .  S
C817        C818   1.404       .  A
C817        C822   1.408       .  A
C818        C819   1.400       .  A
C818        H827   1.083       .  S
C819        C820   1.407       .  A
C819        H828   1.082       .  S
C820        C823   1.494       .  S
C820        C821   1.407       .  A
C821        C822   1.405       .  A
C821        H829   1.083       .  S
C822        H830   1.083       .  S
C823        H831   1.087       .  S
C823        C824   1.350       .  D
C824        H832   1.085       .  S
C825        H833   1.087       .  S
C825        C826   1.348       .  D
C826        H834   1.086       .  S
C835        C843   1.486       .  S
C835        C836   1.402       .  A
C835        C840   1.407       .  A
C836        C837   1.399       .  A
C836        H845   1.084       .  S
C837        C838   1.410       .  A
C837        H846   1.080       .  S
C838        C841   1.489       .  S
C838        C839   1.403       .  A
C839        C840   1.397       .  A
C839        H847   1.084       .  S
C840        H848   1.081       .  S
C841        H849   1.088       .  S
C841        C842   1.345       .  D
C842        H850   1.084       .  S
C843        H851   1.087       .  S
C843        C844   1.343       .  D
C844        H852   1.086       .  S
C853        C861   1.490       .  S
C853        C854   1.404       .  A
C853        C858   1.408       .  A
C854        C855   1.401       .  A
C854        H863   1.084       .  S
C855        C856   1.409       .  A
C855        H864   1.081       .  S
C856        C859   1.492       .  S
C856        C857   1.404       .  A
C857        C858   1.399       .  A
C857        H865   1.084       .  S
C858        H866   1.081       .  S
C859        H867   1.087       .  S
C859        C860   1.347       .  D
C860        H868   1.084       .  S
C861        H869   1.087       .  S
C861        C862   1.347       .  D
C862        H870   1.085       .  S
C871        C879   1.487       .  S
C871        C872   1.403       .  A
C871        C876   1.409       .  A
C872        C873   1.396       .  A
C872        H881   1.083       .  S
C873        C874   1.407       .  A
C873        H882   1.081       .  S
C874        C877   1.484       .  S
C874        C875   1.403       .  A
C875        C876   1.399       .  A
C875        H883   1.083       .  S
C876        H884   1.081       .  S
C877        H885   1.087       .  S
C877        C878   1.344       .  D
C878        H886   1.085       .  S
C879        H887   1.087       .  S
C879        C880   1.345       .  D
C880        H888   1.084       .  S
C889        C897   1.487       .  S
C889        C890   1.403       .  A
C889        C894   1.408       .  A
C890        C891   1.398       .  A
C890        H899   1.084       .  S
C891        C892   1.409       .  A
C891        H900   1.080       .  S
C892        C895   1.489       .  S
C892        C893   1.403       .  A
C893        C894   1.398       .  A
C893        H901   1.084       .  S
C894        H902   1.080       .  S
C895        H903   1.088       .  S
C895        C896   1.345       .  D
C896        H904   1.084       .  S
C897        H905   1.087       .  S
C897        C898   1.346       .  D
C898        H906   1.084       .  S
C907        C915   1.490       .  S
C907        C908   1.403   1_455  A
C907        C912   1.409       .  A
C908        C909   1.397       .  A
C908        H917   1.084       .  S
C909        C910   1.408   1_655  A
C909        H918   1.081       .  S
C910        C913   1.490       .  S
C910        C911   1.405       .  A
C911        C912   1.402       .  A
C911        H919   1.084       .  S
C912        H920   1.081       .  S
C913        H921   1.087       .  S
C913        C914   1.346       .  D
C914        H922   1.085   1_455  S
C915        H923   1.087   1_455  S
C915        C916   1.348       .  D
C916        H924   1.084       .  S
C925        C933   1.488   1_655  S
C925        C926   1.405   1_655  A
C925        C930   1.407       .  A
C926        C927   1.402   1_455  A
C926        H935   1.082       .  S
C927        C928   1.406       .  A
C927        H936   1.083   1_655  S
C928        C931   1.484       .  S
C928        C929   1.403       .  A
C929        C930   1.397       .  A
C929        H937   1.083       .  S
C930        H938   1.082       .  S
C931        H939   1.087       .  S
C931        C932   1.347       .  D
C932        H940   1.085       .  S
C933        H941   1.087       .  S
C933        C934   1.347       .  D
C934        H942   1.085   1_455  S
C943        C951   1.490   1_655  S
C943        C944   1.402   1_655  A
C943        C948   1.408       .  A
C944        C945   1.395   1_455  A
C944        H953   1.084       .  S
C945        C946   1.409       .  A
C945        H954   1.079       .  S
C946        C949   1.496       .  S
C946        C947   1.407       .  A
C947        C948   1.404       .  A
C947        H955   1.083       .  S
C948        H956   1.080       .  S
C949        H957   1.087       .  S
C949        C950   1.348       .  D
C950        H958   1.082       .  S
C951        H959   1.088       .  S
C951        C952   1.348       .  D
C952        H960   1.084   1_455  S
C961        C969   1.491       .  S
C961        C962   1.402       .  A
C961        C966   1.409       .  A
C962        C963   1.397       .  A
C962        H971   1.083       .  S
C963        C964   1.409       .  A
C963        H972   1.080       .  S
C964        C967   1.494       .  S
C964        C965   1.405       .  A
C965        C966   1.403       .  A
C965        H973   1.083       .  S
C966        H974   1.081       .  S
C967        H975   1.083       .  S
C967        C968   1.348       .  D
C968        H976   1.084       .  S
C969        H977   1.083       .  S
C969        C970   1.346       .  D
C970        H978   1.084       .  S
C979        C987   1.485   1_455  S
C979        C980   1.405       .  A
C979        C984   1.406       .  A
C980        C981   1.403       .  A
C980        H989   1.084       .  S
C981        C982   1.405       .  A
C981        H990   1.083       .  S
C982        C985   1.480       .  S
C982        C983   1.402       .  A
C983        C984   1.399       .  A
C983        H991   1.084       .  S
C984        H992   1.082   1_455  S
C985        H993   1.087       .  S
C985        C986   1.346       .  D
C986        H994   1.086       .  S
C987        H995   1.087       .  S
C987        C988   1.344       .  D
C988        H996   1.086       .  S
C997       C1005   1.492       .  S
C997        C998   1.405   1_655  A
C997       C1002   1.408   1_655  A
C998        C999   1.402       .  A
C998       H1007   1.084       .  S
C999       C1000   1.409       .  A
C999       H1008   1.081       .  S
C1000      C1003   1.490       .  S
C1000      C1001   1.404       .  A
C1001      C1002   1.398       .  A
C1001      H1009   1.084       .  S
C1002      H1010   1.082   1_455  S
C1003      H1011   1.086       .  S
C1003      C1004   1.348       .  D
C1004      H1012   1.084       .  S
C1005      H1013   1.086       .  S
C1005      C1006   1.346       .  D
C1006      H1014   1.085       .  S
C1015      C1023   1.496       .  S
C1015      C1016   1.405       .  A
C1015      C1020   1.409       .  A
C1016      C1017   1.406       .  A
C1016      H1025   1.084       .  S
C1017      C1018   1.411       .  A
C1017      H1026   1.081       .  S
C1018      C1021   1.495       .  S
C1018      C1019   1.403       .  A
C1019      C1020   1.398       .  A
C1019      H1027   1.084       .  S
C1020      H1028   1.081       .  S
C1021      H1029   1.084       .  S
C1021      C1022   1.347       .  D
C1022      H1030   1.085       .  S
C1023      H1031   1.085       .  S
C1023      C1024   1.347       .  D
C1024      H1032   1.086       .  S
C1033      C1041   1.493       .  S
C1033      C1034   1.405       .  A
C1033      C1038   1.408       .  A
C1034      C1035   1.405       .  A
C1034      H1043   1.084       .  S
C1035      C1036   1.410       .  A
C1035      H1044   1.081       .  S
C1036      C1039   1.490       .  S
C1036      C1037   1.402       .  A
C1037      C1038   1.396       .  A
C1037      H1045   1.084       .  S
C1038      H1046   1.081       .  S
C1039      H1047   1.088       .  S
C1039      C1040   1.347       .  D
C1040      H1048   1.085       .  S
C1041      H1049   1.087       .  S
C1041      C1042   1.346       .  D
C1042      H1050   1.086       .  S
C1051      C1059   1.488       .  S
C1051      C1052   1.404       .  A
C1051      C1056   1.407       .  A
C1052      C1053   1.404       .  A
C1052      H1061   1.083       .  S
C1053      C1054   1.409       .  A
C1053      H1062   1.082       .  S
C1054      C1057   1.484       .  S
C1054      C1055   1.401       .  A
C1055      C1056   1.393       .  A
C1055      H1063   1.084       .  S
C1056      H1064   1.082       .  S
C1057      H1065   1.087       .  S
C1057      C1058   1.344       .  D
C1058      H1066   1.086       .  S
C1059      H1067   1.086       .  S
C1059      C1060   1.344       .  D
C1060      H1068   1.087       .  S
C1069      C1077   1.490       .  S
C1069      C1070   1.404       .  A
C1069      C1074   1.409       .  A
C1070      C1071   1.397       .  A
C1070      H1079   1.083       .  S
C1071      C1072   1.406       .  A
C1071      H1080   1.083       .  S
C1072      C1075   1.491       .  S
C1072      C1073   1.405       .  A
C1073      C1074   1.404       .  A
C1073      H1081   1.083       .  S
C1074      H1082   1.081       .  S
C1075      H1083   1.086       .  S
C1075      C1076   1.346       .  D
C1076      H1084   1.086       .  S
C1077      H1085   1.087       .  S
C1077      C1078   1.349       .  D
C1078      H1086   1.084       .  S
C1087      C1095   1.487       .  S
C1087      C1088   1.404       .  A
C1087      C1092   1.407       .  A
C1088      C1089   1.403       .  A
C1088      H1097   1.083       .  S
C1089      C1090   1.409       .  A
C1089      H1098   1.082       .  S
C1090      C1093   1.488       .  S
C1090      C1091   1.402       .  A
C1091      C1092   1.397       .  A
C1091      H1099   1.083       .  S
C1092      H1100   1.082       .  S
C1093      H1101   1.087       .  S
C1093      C1094   1.346       .  D
C1094      H1102   1.085       .  S
C1095      H1103   1.086       .  S
C1095      C1096   1.347       .  D
C1096      H1104   1.086       .  S
C1105      C1113   1.494       .  S
C1105      C1106   1.405       .  A
C1105      C1110   1.408       .  A
C1106      C1107   1.404       .  A
C1106      H1115   1.084       .  S
C1107      C1108   1.410       .  A
C1107      H1116   1.081       .  S
C1108      C1111   1.494       .  S
C1108      C1109   1.404       .  A
C1109      C1110   1.398       .  A
C1109      H1117   1.084       .  S
C1110      H1118   1.081       .  S
C1111      H1119   1.083       .  S
C1111      C1112   1.348       .  D
C1112      H1120   1.085       .  S
C1113      H1121   1.085       .  S
C1113      C1114   1.347       .  D
C1114      H1122   1.085       .  S
C1123      C1131   1.492       .  S
C1123      C1124   1.407       .  A
C1123      C1128   1.408       .  A
C1124      C1125   1.402       .  A
C1124      H1133   1.083       .  S
C1125      C1126   1.406       .  A
C1125      H1134   1.082       .  S
C1126      C1129   1.488       .  S
C1126      C1127   1.404       .  A
C1127      C1128   1.400       .  A
C1127      H1135   1.083       .  S
C1128      H1136   1.081       .  S
C1129      H1137   1.087       .  S
C1129      C1130   1.348       .  D
C1130      H1138   1.085       .  S
C1131      H1139   1.087       .  S
C1131      C1132   1.350       .  D
C1132      H1140   1.084       .  S
C1141      C1149   1.499       .  S
C1141      C1142   1.407       .  A
C1141      C1146   1.410       .  A
C1142      C1143   1.403       .  A
C1142      H1151   1.084       .  S
C1143      C1144   1.407       .  A
C1143      H1152   1.082       .  S
C1144      C1147   1.495       .  S
C1144      C1145   1.405       .  A
C1145      C1146   1.402       .  A
C1145      H1153   1.084       .  S
C1146      H1154   1.080       .  S
C1147      H1155   1.086       .  S
C1147      C1148   1.349       .  D
C1148      H1156   1.085       .  S
C1149      H1157   1.084       .  S
C1149      C1150   1.350       .  D
C1150      H1158   1.084       .  S
C1159      C1167   1.491       .  S
C1159      C1160   1.404       .  A
C1159      C1164   1.409       .  A
C1160      C1161   1.398       .  A
C1160      H1169   1.084       .  S
C1161      C1162   1.408       .  A
C1161      H1170   1.082       .  S
C1162      C1165   1.491       .  S
C1162      C1163   1.404       .  A
C1163      C1164   1.401       .  A
C1163      H1171   1.083       .  S
C1164      H1172   1.081       .  S
C1165      H1173   1.085       .  S
C1165      C1166   1.347       .  D
C1166      H1174   1.085       .  S
C1167      H1175   1.084       .  S
C1167      C1168   1.349       .  D
C1168      H1176   1.084       .  S
C1177      C1185   1.489       .  S
C1177      C1178   1.405       .  A
C1177      C1182   1.407       .  A
C1178      C1179   1.401       .  A
C1178      H1187   1.084       .  S
C1179      C1180   1.405       .  A
C1179      H1188   1.083       .  S
C1180      C1183   1.486       .  S
C1180      C1181   1.405       .  A
C1181      C1182   1.404       .  A
C1181      H1189   1.084       .  S
C1182      H1190   1.082       .  S
C1183      H1191   1.088       .  S
C1183      C1184   1.347       .  D
C1184      H1192   1.086       .  S
C1185      H1193   1.087       .  S
C1185      C1186   1.348       .  D
C1186      H1194   1.086       .  S
C1195      C1203   1.492       .  S
C1195      C1196   1.404       .  A
C1195      C1200   1.407       .  A
C1196      C1197   1.401       .  A
C1196      H1205   1.083       .  S
C1197      C1198   1.410       .  A
C1197      H1206   1.081       .  S
C1198      C1201   1.497       .  S
C1198      C1199   1.406       .  A
C1199      C1200   1.403       .  A
C1199      H1207   1.083       .  S
C1200      H1208   1.082       .  S
C1201      H1209   1.087       .  S
C1201      C1202   1.349       .  D
C1202      H1210   1.084       .  S
C1203      H1211   1.087       .  S
C1203      C1204   1.349       .  D
C1204      H1212   1.085       .  S
C1213      C1221   1.491       .  S
C1213      C1214   1.406       .  A
C1213      C1218   1.406       .  A
C1214      C1215   1.406       .  A
C1214      H1223   1.083       .  S
C1215      C1216   1.410       .  A
C1215      H1224   1.081       .  S
C1216      C1219   1.490       .  S
C1216      C1217   1.403       .  A
C1217      C1218   1.395       .  A
C1217      H1225   1.083   1_565  S
C1218      H1226   1.082   1_565  S
C1219      H1227   1.083       .  S
C1219      C1220   1.348       .  D
C1220      H1228   1.085       .  S
C1221      H1229   1.085       .  S
C1221      C1222   1.346       .  D
C1222      H1230   1.087       .  S
C1231      C1239   1.485       .  S
C1231      C1232   1.402       .  A
C1231      C1236   1.408       .  A
C1232      C1233   1.399       .  A
C1232      H1241   1.084       .  S
C1233      C1234   1.407       .  A
C1233      H1242   1.082       .  S
C1234      C1237   1.487       .  S
C1234      C1235   1.403       .  A
C1235      C1236   1.401       .  A
C1235      H1243   1.083       .  S
C1236      H1244   1.082       .  S
C1237      H1245   1.087       .  S
C1237      C1238   1.345       .  D
C1238      H1246   1.087       .  S
C1239      H1247   1.087       .  S
C1239      C1240   1.344       .  D
C1240      H1248   1.086       .  S
C1249      C1257   1.491       .  S
C1249      C1250   1.406       .  A
C1249      C1254   1.407       .  A
C1250      C1251   1.405       .  A
C1250      H1259   1.084       .  S
C1251      C1252   1.406       .  A
C1251      H1260   1.083       .  S
C1252      C1255   1.485       .  S
C1252      C1253   1.403       .  A
C1253      C1254   1.400       .  A
C1253      H1261   1.084       .  S
C1254      H1262   1.082       .  S
C1255      H1263   1.087       .  S
C1255      C1256   1.347       .  D
C1256      H1264   1.086       .  S
C1257      H1265   1.086       .  S
C1257      C1258   1.349       .  D
C1258      H1266   1.086       .  S
C1267      C1275   1.491       .  S
C1267      C1268   1.406       .  A
C1267      C1272   1.407       .  A
C1268      C1269   1.403       .  A
C1268      H1277   1.084       .  S
C1269      C1270   1.404       .  A
C1269      H1278   1.083       .  S
C1270      C1273   1.485       .  S
C1270      C1271   1.403       .  A
C1271      C1272   1.403       .  A
C1271      H1279   1.084       .  S
C1272      H1280   1.082       .  S
C1273      H1281   1.087       .  S
C1273      C1274   1.347       .  D
C1274      H1282   1.086       .  S
C1275      H1283   1.087       .  S
C1275      C1276   1.349       .  D
C1276      H1284   1.086       .  S
C1285      C1293   1.498       .  S
C1285      C1286   1.407       .  A
C1285      C1290   1.410       .  A
C1286      C1287   1.406       .  A
C1286      H1295   1.083       .  S
C1287      C1288   1.408       .  A
C1287      H1296   1.082       .  S
C1288      C1291   1.490       .  S
C1288      C1289   1.402       .  A
C1289      C1290   1.398       .  A
C1289      H1297   1.084       .  S
C1290      H1298   1.080       .  S
C1291      H1299   1.087       .  S
C1291      C1292   1.349       .  D
C1292      H1300   1.085       .  S
C1293      H1301   1.087       .  S
C1293      C1294   1.348       .  D
C1294      H1302   1.084       .  S
C1303      C1311   1.487       .  S
C1303      C1304   1.404       .  A
C1303      C1308   1.407       .  A
C1304      C1305   1.402       .  A
C1304      H1313   1.084       .  S
C1305      C1306   1.405       .  A
C1305      H1314   1.082       .  S
C1306      C1309   1.483       .  S
C1306      C1307   1.403       .  A
C1307      C1308   1.401       .  A
C1307      H1315   1.084       .  S
C1308      H1316   1.083       .  S
C1309      H1317   1.087       .  S
C1309      C1310   1.347       .  D
C1310      H1318   1.086       .  S
C1311      H1319   1.086       .  S
C1311      C1312   1.345       .  D
C1312      H1320   1.087       .  S
C1321      C1329   1.492       .  S
C1321      C1322   1.405       .  A
C1321      C1326   1.406       .  A
C1322      C1323   1.406       .  A
C1322      H1331   1.083       .  S
C1323      C1324   1.410       .  A
C1323      H1332   1.081       .  S
C1324      C1327   1.492       .  S
C1324      C1325   1.404       .  A
C1325      C1326   1.397       .  A
C1325      H1333   1.083       .  S
C1326      H1334   1.083       .  S
C1327      H1335   1.085       .  S
C1327      C1328   1.350       .  D
C1328      H1336   1.085       .  S
C1329      H1337   1.085       .  S
C1329      C1330   1.345       .  D
C1330      H1338   1.087       .  S
C1339      C1347   1.498       .  S
C1339      C1340   1.407       .  A
C1339      C1344   1.407       .  A
C1340      C1341   1.408       .  A
C1340      H1349   1.084       .  S
C1341      C1342   1.409       .  A
C1341      H1350   1.082       .  S
C1342      C1345   1.497       .  S
C1342      C1343   1.405       .  A
C1343      C1344   1.400       .  A
C1343      H1351   1.083       .  S
C1344      H1352   1.082       .  S
C1345      H1353   1.087       .  S
C1345      C1346   1.352       .  D
C1346      H1354   1.085       .  S
C1347      H1355   1.087       .  S
C1347      C1348   1.351       .  D
C1348      H1356   1.086       .  S
C1357      C1365   1.489       .  S
C1357      C1358   1.404       .  A
C1357      C1362   1.407       .  A
C1358      C1359   1.401       .  A
C1358      H1367   1.084       .  S
C1359      C1360   1.408       .  A
C1359      H1368   1.082       .  S
C1360      C1363   1.490       .  S
C1360      C1361   1.404       .  A
C1361      C1362   1.401       .  A
C1361      H1369   1.083       .  S
C1362      H1370   1.082       .  S
C1363      H1371   1.086       .  S
C1363      C1364   1.345       .  D
C1364      H1372   1.086       .  S
C1365      H1373   1.086       .  S
C1365      C1366   1.347       .  D
C1366      H1374   1.086       .  S
C1375      C1383   1.492       .  S
C1375      C1376   1.404       .  A
C1375      C1380   1.408       .  A
C1376      C1377   1.401       .  A
C1376      H1385   1.083       .  S
C1377      C1378   1.410       .  A
C1377      H1386   1.081       .  S
C1378      C1381   1.494       .  S
C1378      C1379   1.404       .  A
C1379      C1380   1.400       .  A
C1379      H1387   1.083       .  S
C1380      H1388   1.081       .  S
C1381      H1389   1.087       .  S
C1381      C1382   1.346       .  D
C1382      H1390   1.084       .  S
C1383      H1391   1.087       .  S
C1383      C1384   1.348       .  D
C1384      H1392   1.084       .  S
C1393      C1401   1.496       .  S
C1393      C1394   1.405       .  A
C1393      C1398   1.410       .  A
C1394      C1395   1.400   1_554  A
C1394      H1403   1.083       .  S
C1395      C1396   1.407       .  A
C1395      H1404   1.081       .  S
C1396      C1399   1.493       .  S
C1396      C1397   1.405       .  A
C1397      C1398   1.402   1_556  A
C1397      H1405   1.083       .  S
C1398      H1406   1.080       .  S
C1399      H1407   1.084       .  S
C1399      C1400   1.351       .  D
C1400      H1408   1.084       .  S
C1401      H1409   1.083       .  S
C1401      C1402   1.349   1_545  D
C1402      H1410   1.083       .  S
C1411      C1419   1.498       .  S
C1411      C1412   1.408       .  A
C1411      C1416   1.407       .  A
C1412      C1413   1.406       .  A
C1412      H1421   1.083       .  S
C1413      C1414   1.407       .  A
C1413      H1422   1.082       .  S
C1414      C1417   1.496       .  S
C1414      C1415   1.407       .  A
C1415      C1416   1.402       .  A
C1415      H1423   1.082       .  S
C1416      H1424   1.082       .  S
C1417      H1425   1.085       .  S
C1417      C1418   1.355       .  D
C1418      H1426   1.084       .  S
C1419      H1427   1.086       .  S
C1419      C1420   1.352       .  D
C1420      H1428   1.085       .  S
C1429      C1437   1.493       .  S
C1429      C1430   1.403       .  A
C1429      C1434   1.409       .  A
C1430      C1431   1.399   1_554  A
C1430      H1439   1.083       .  S
C1431      C1432   1.409       .  A
C1431      H1440   1.081       .  S
C1432      C1435   1.500       .  S
C1432      C1433   1.407       .  A
C1433      C1434   1.406   1_556  A
C1433      H1441   1.083       .  S
C1434      H1442   1.082       .  S
C1435      H1443   1.085       .  S
C1435      C1436   1.349       .  D
C1436      H1444   1.084       .  S
C1437      H1445   1.086       .  S
C1437      C1438   1.349   1_545  D
C1438      H1446   1.084       .  S
C1447      C1455   1.488       .  S
C1447      C1448   1.403       .  A
C1447      C1452   1.408       .  A
C1448      C1449   1.399       .  A
C1448      H1457   1.084       .  S
C1449      C1450   1.407       .  A
C1449      H1458   1.083       .  S
C1450      C1453   1.488       .  S
C1450      C1451   1.404       .  A
C1451      C1452   1.403       .  A
C1451      H1459   1.083       .  S
C1452      H1460   1.082       .  S
C1453      H1461   1.085       .  S
C1453      C1454   1.345       .  D
C1454      H1462   1.086       .  S
C1455      H1463   1.086       .  S
C1455      C1456   1.348       .  D
C1456      H1464   1.085       .  S
C1465      C1473   1.493   1_655  S
C1465      C1466   1.404   1_655  A
C1465      C1470   1.410       .  A
C1466      C1467   1.397   1_455  A
C1466      H1475   1.084       .  S
C1467      C1468   1.406       .  A
C1467      H1476   1.083       .  S
C1468      C1471   1.493       .  S
C1468      C1469   1.405       .  A
C1469      C1470   1.407       .  A
C1469      H1477   1.083       .  S
C1470      H1478   1.082       .  S
C1471      H1479   1.086       .  S
C1471      C1472   1.345       .  D
C1472      H1480   1.087       .  S
C1473      H1481   1.087       .  S
C1473      C1474   1.349   1_455  D
C1474      H1482   1.085       .  S
C1483      C1491   1.490       .  S
C1483      C1484   1.404       .  A
C1483      C1488   1.409       .  A
C1484      C1485   1.399       .  A
C1484      H1493   1.084       .  S
C1485      C1486   1.408       .  A
C1485      H1494   1.081       .  S
C1486      C1489   1.491       .  S
C1486      C1487   1.404       .  A
C1487      C1488   1.401       .  A
C1487      H1495   1.084       .  S
C1488      H1496   1.081       .  S
C1489      H1497   1.087       .  S
C1489      C1490   1.346       .  D
C1490      H1498   1.085       .  S
C1491      H1499   1.087       .  S
C1491      C1492   1.347   1_655  D
C1492      H1500   1.085       .  S
C1501      C1509   1.492       .  S
C1501      C1502   1.406       .  A
C1501      C1506   1.406       .  A
C1502      C1503   1.404       .  A
C1502      H1511   1.083       .  S
C1503      C1504   1.407       .  A
C1503      H1512   1.082       .  S
C1504      C1507   1.496       .  S
C1504      C1505   1.408       .  A
C1505      C1506   1.405       .  A
C1505      H1513   1.083       .  S
C1506      H1514   1.083       .  S
C1507      H1515   1.086       .  S
C1507      C1508   1.352       .  D
C1508      H1516   1.085       .  S
C1509      H1517   1.087       .  S
C1509      C1510   1.352       .  D
C1510      H1518   1.085       .  S
C1519      C1527   1.497       .  S
C1519      C1520   1.404       .  A
C1519      C1524   1.410       .  A
C1520      C1521   1.400       .  A
C1520      H1529   1.084       .  S
C1521      C1522   1.409       .  A
C1521      H1530   1.081       .  S
C1522      C1525   1.499       .  S
C1522      C1523   1.406       .  A
C1523      C1524   1.406       .  A
C1523      H1531   1.083       .  S
C1524      H1532   1.081       .  S
C1525      H1533   1.084       .  S
C1525      C1526   1.349       .  D
C1526      H1534   1.085       .  S
C1527      H1535   1.083       .  S
C1527      C1528   1.351       .  D
C1528      H1536   1.085       .  S
C1537      C1545   1.484       .  S
C1537      C1538   1.403   1_554  A
C1537      C1542   1.407   1_554  A
C1538      C1539   1.398   1_455  A
C1538      H1547   1.084   1_556  S
C1539      C1540   1.405   1_655  A
C1539      H1548   1.082       .  S
C1540      C1543   1.485   1_455  S
C1540      C1541   1.405       .  A
C1541      C1542   1.404       .  A
C1541      H1549   1.084       .  S
C1542      H1550   1.082       .  S
C1543      H1551   1.087       .  S
C1543      C1544   1.345       .  D
C1544      H1552   1.086       .  S
C1545      H1553   1.088       .  S
C1545      C1546   1.347       .  D
C1546      H1554   1.085       .  S
C1555      C1563   1.483       .  S
C1555      C1556   1.404       .  A
C1555      C1560   1.406       .  A
C1556      C1557   1.401       .  A
C1556      H1565   1.084       .  S
C1557      C1558   1.405       .  A
C1557      H1566   1.083       .  S
C1558      C1561   1.481       .  S
C1558      C1559   1.402       .  A
C1559      C1560   1.400       .  A
C1559      H1567   1.083       .  S
C1560      H1568   1.083       .  S
C1561      H1569   1.087       .  S
C1561      C1562   1.344       .  D
C1562      H1570   1.086       .  S
C1563      H1571   1.087       .  S
C1563      C1564   1.347       .  D
C1564      H1572   1.085       .  S
C1573      C1581   1.500       .  S
C1573      C1574   1.409       .  A
C1573      C1578   1.406       .  A
C1574      C1575   1.408   1_455  A
C1574      H1583   1.083       .  S
C1575      C1576   1.408   1_554  A
C1575      H1584   1.081   1_554  S
C1576      C1579   1.497       .  S
C1576      C1577   1.407   1_556  A
C1577      C1578   1.399   1_655  A
C1577      H1585   1.083   1_554  S
C1578      H1586   1.082       .  S
C1579      H1587   1.086       .  S
C1579      C1580   1.356       .  D
C1580      H1588   1.084       .  S
C1581      H1589   1.085       .  S
C1581      C1582   1.353       .  D
C1582      H1590   1.084       .  S
C1591      C1599   1.487       .  S
C1591      C1592   1.402       .  A
C1591      C1596   1.407       .  A
C1592      C1593   1.395       .  A
C1592      H1601   1.084       .  S
C1593      C1594   1.408       .  A
C1593      H1602   1.079       .  S
C1594      C1597   1.492       .  S
C1594      C1595   1.406       .  A
C1595      C1596   1.401       .  A
C1595      H1603   1.083       .  S
C1596      H1604   1.081       .  S
C1597      H1605   1.084       .  S
C1597      C1598   1.350       .  D
C1598      H1606   1.081       .  S
C1599      H1607   1.084       .  S
C1599      C1600   1.348       .  D
C1600      H1608   1.084       .  S
C1609      C1617   1.494       .  S
C1609      C1610   1.404       .  A
C1609      C1614   1.408       .  A
C1610      C1611   1.402       .  A
C1610      H1619   1.084       .  S
C1611      C1612   1.409       .  A
C1611      H1620   1.079       .  S
C1612      C1615   1.494       .  S
C1612      C1613   1.406       .  A
C1613      C1614   1.401       .  A
C1613      H1621   1.084       .  S
C1614      H1622   1.081       .  S
C1615      H1623   1.088       .  S
C1615      C1616   1.351       .  D
C1616      H1624   1.084       .  S
C1617      H1625   1.082       .  S
C1617      C1618   1.351       .  D
C1618      H1626   1.085       .  S
C1627      C1635   1.497       .  S
C1627      C1628   1.406       .  A
C1627      C1632   1.409       .  A
C1628      C1629   1.404       .  A
C1628      H1637   1.082       .  S
C1629      C1630   1.409       .  A
C1629      H1638   1.082       .  S
C1630      C1633   1.495       .  S
C1630      C1631   1.404       .  A
C1631      C1632   1.401       .  A
C1631      H1639   1.083       .  S
C1632      H1640   1.081       .  S
C1633      H1641   1.086       .  S
C1633      C1634   1.349       .  D
C1634      H1642   1.085       .  S
C1635      H1643   1.087       .  S
C1635      C1636   1.351       .  D
C1636      H1644   1.084       .  S
C1645      C1653   1.495       .  S
C1645      C1646   1.406       .  A
C1645      C1650   1.408       .  A
C1646      C1647   1.402       .  A
C1646      H1655   1.083       .  S
C1647      C1648   1.408       .  A
C1647      H1656   1.082       .  S
C1648      C1651   1.492       .  S
C1648      C1649   1.404       .  A
C1649      C1650   1.400       .  A
C1649      H1657   1.083       .  S
C1650      H1658   1.081       .  S
C1651      H1659   1.085       .  S
C1651      C1652   1.349       .  D
C1652      H1660   1.084       .  S
C1653      H1661   1.084       .  S
C1653      C1654   1.350       .  D
C1654      H1662   1.084       .  S
C1663      C1671   1.489       .  S
C1663      C1664   1.406       .  A
C1663      C1668   1.406       .  A
C1664      C1665   1.403       .  A
C1664      H1673   1.083       .  S
C1665      C1666   1.407       .  A
C1665      H1674   1.082       .  S
C1666      C1669   1.487       .  S
C1666      C1667   1.404       .  A
C1667      C1668   1.398       .  A
C1667      H1675   1.084       .  S
C1668      H1676   1.082       .  S
C1669      H1677   1.087       .  S
C1669      C1670   1.348       .  D
C1670      H1678   1.085       .  S
C1671      H1679   1.087       .  S
C1671      C1672   1.348       .  D
C1672      H1680   1.086       .  S
C1681      C1689   1.496       .  S
C1681      C1682   1.404       .  A
C1681      C1686   1.410       .  A
C1682      C1683   1.401       .  A
C1682      H1691   1.084       .  S
C1683      C1684   1.409       .  A
C1683      H1692   1.082       .  S
C1684      C1687   1.495       .  S
C1684      C1685   1.404       .  A
C1685      C1686   1.404       .  A
C1685      H1693   1.084       .  S
C1686      H1694   1.081       .  S
C1687      H1695   1.087       .  S
C1687      C1688   1.347       .  D
C1688      H1696   1.086       .  S
C1689      H1697   1.087       .  S
C1689      C1690   1.350       .  D
C1690      H1698   1.085       .  S
C1699      C1707   1.493       .  S
C1699      C1700   1.405       .  A
C1699      C1704   1.408   1_554  A
C1700      C1701   1.404       .  A
C1700      H1709   1.084       .  S
C1701      C1702   1.410   1_554  A
C1701      H1710   1.081       .  S
C1702      C1705   1.493       .  S
C1702      C1703   1.404       .  A
C1703      C1704   1.398       .  A
C1703      H1711   1.083       .  S
C1704      H1712   1.082       .  S
C1705      H1713   1.082       .  S
C1705      C1706   1.349       .  D
C1706      H1714   1.085       .  S
C1707      H1715   1.085       .  S
C1707      C1708   1.347       .  D
C1708      H1716   1.086       .  S
C1717      C1725   1.484       .  S
C1717      C1718   1.404       .  A
C1717      C1722   1.406       .  A
C1718      C1719   1.400       .  A
C1718      H1727   1.083       .  S
C1719      C1720   1.407       .  A
C1719      H1728   1.082       .  S
C1720      C1723   1.483       .  S
C1720      C1721   1.402       .  A
C1721      C1722   1.397       .  A
C1721      H1729   1.084       .  S
C1722      H1730   1.082       .  S
C1723      H1731   1.087       .  S
C1723      C1724   1.344       .  D
C1724      H1732   1.086       .  S
C1725      H1733   1.087       .  S
C1725      C1726   1.346       .  D
C1726      H1734   1.086       .  S
C1735      C1743   1.490       .  S
C1735      C1736   1.402       .  A
C1735      C1740   1.410       .  A
C1736      C1737   1.398       .  A
C1736      H1745   1.083       .  S
C1737      C1738   1.409       .  A
C1737      H1746   1.082       .  S
C1738      C1741   1.491       .  S
C1738      C1739   1.403       .  A
C1739      C1740   1.402       .  A
C1739      H1747   1.083       .  S
C1740      H1748   1.081       .  S
C1741      H1749   1.086       .  S
C1741      C1742   1.345       .  D
C1742      H1750   1.086       .  S
C1743      H1751   1.087       .  S
C1743      C1744   1.346       .  D
C1744      H1752   1.085       .  S
C1753      C1761   1.490       .  S
C1753      C1754   1.402       .  A
C1753      C1758   1.410       .  A
C1754      C1755   1.397   1_554  A
C1754      H1763   1.084       .  S
C1755      C1756   1.407       .  A
C1755      H1764   1.082       .  S
C1756      C1759   1.490       .  S
C1756      C1757   1.404   1_556  A
C1757      C1758   1.404       .  A
C1757      H1765   1.084   1_554  S
C1758      H1766   1.082       .  S
C1759      H1767   1.085       .  S
C1759      C1760   1.347       .  D
C1760      H1768   1.086       .  S
C1761      H1769   1.086       .  S
C1761      C1762   1.346       .  D
C1762      H1770   1.086       .  S
C1771      C1779   1.486       .  S
C1771      C1772   1.405       .  A
C1771      C1776   1.405       .  A
C1772      C1773   1.405       .  A
C1772      H1781   1.083       .  S
C1773      C1774   1.410       .  A
C1773      H1782   1.082       .  S
C1774      C1777   1.483       .  S
C1774      C1775   1.401       .  A
C1775      C1776   1.391       .  A
C1775      H1783   1.084       .  S
C1776      H1784   1.083       .  S
C1777      H1785   1.087       .  S
C1777      C1778   1.345       .  D
C1778      H1786   1.085       .  S
C1779      H1787   1.084       .  S
C1779      C1780   1.346       .  D
C1780      H1788   1.087       .  S
C1789      C1797   1.489       .  S
C1789      C1790   1.403       .  A
C1789      C1794   1.408       .  A
C1790      C1791   1.403       .  A
C1790      H1799   1.083       .  S
C1791      C1792   1.410       .  A
C1791      H1800   1.082       .  S
C1792      C1795   1.490       .  S
C1792      C1793   1.402       .  A
C1793      C1794   1.398       .  A
C1793      H1801   1.083       .  S
C1794      H1802   1.083       .  S
C1795      H1803   1.087       .  S
C1795      C1796   1.344       .  D
C1796      H1804   1.086       .  S
C1797      H1805   1.084       .  S
C1797      C1798   1.346       .  D
C1798      H1806   1.087       .  S
C1807      C1815   1.489       .  S
C1807      C1808   1.405       .  A
C1807      C1812   1.406       .  A
C1808      C1809   1.401       .  A
C1808      H1817   1.083       .  S
C1809      C1810   1.407       .  A
C1809      H1818   1.082       .  S
C1810      C1813   1.490       .  S
C1810      C1811   1.405       .  A
C1811      C1812   1.401       .  A
C1811      H1819   1.083       .  S
C1812      H1820   1.082       .  S
C1813      H1821   1.087       .  S
C1813      C1814   1.348       .  D
C1814      H1822   1.085       .  S
C1815      H1823   1.087       .  S
C1815      C1816   1.348       .  D
C1816      H1824   1.085       .  S
C1825      C1833   1.486       .  S
C1825      C1826   1.403       .  A
C1825      C1830   1.406       .  A
C1826      C1827   1.398       .  A
C1826      H1835   1.084       .  S
C1827      C1828   1.409       .  A
C1827      H1836   1.081       .  S
C1828      C1831   1.494       .  S
C1828      C1829   1.406       .  A
C1829      C1830   1.403       .  A
C1829      H1837   1.083       .  S
C1830      H1838   1.082       .  S
C1831      H1839   1.087       .  S
C1831      C1832   1.348       .  D
C1832      H1840   1.084       .  S
C1833      H1841   1.088       .  S
C1833      C1834   1.348       .  D
C1834      H1842   1.086       .  S
C1843      C1851   1.486       .  S
C1843      C1844   1.404       .  A
C1843      C1848   1.407       .  A
C1844      C1845   1.399       .  A
C1844      H1853   1.083       .  S
C1845      C1846   1.408       .  A
C1845      H1854   1.080       .  S
C1846      C1849   1.486       .  S
C1846      C1847   1.403       .  A
C1847      C1848   1.395       .  A
C1847      H1855   1.082       .  S
C1848      H1856   1.081       .  S
C1849      H1857   1.087       .  S
C1849      C1850   1.347       .  D
C1850      H1858   1.083       .  S
C1851      H1859   1.087       .  S
C1851      C1852   1.346       .  D
C1852      H1860   1.083       .  S
C1861      C1869   1.485       .  S
C1861      C1862   1.401       .  A
C1861      C1866   1.408       .  A
C1862      C1863   1.395   1_565  A
C1862      H1871   1.084       .  S
C1863      C1864   1.407       .  A
C1863      H1872   1.082       .  S
C1864      C1867   1.489       .  S
C1864      C1865   1.405       .  A
C1865      C1866   1.404   1_545  A
C1865      H1873   1.084       .  S
C1866      H1874   1.082       .  S
C1867      H1875   1.087       .  S
C1867      C1868   1.345       .  D
C1868      H1876   1.086       .  S
C1869      H1877   1.087       .  S
C1869      C1870   1.347       .  D
C1870      H1878   1.085       .  S
C1879      C1887   1.482       .  S
C1879      C1880   1.401       .  A
C1879      C1884   1.407       .  A
C1880      C1881   1.397       .  A
C1880      H1889   1.083       .  S
C1881      C1882   1.408       .  A
C1881      H1890   1.081       .  S
C1882      C1885   1.483       .  S
C1882      C1883   1.402       .  A
C1883      C1884   1.396       .  A
C1883      H1891   1.083       .  S
C1884      H1892   1.082       .  S
C1885      H1893   1.087       .  S
C1885      C1886   1.344       .  D
C1886      H1894   1.084       .  S
C1887      H1895   1.087       .  S
C1887      C1888   1.342       .  D
C1888      H1896   1.085       .  S
C1897      C1905   1.489       .  S
C1897      C1898   1.402   1_565  A
C1897      C1902   1.408       .  A
C1898      C1899   1.396       .  A
C1898      H1907   1.084       .  S
C1899      C1900   1.408       .  A
C1899      H1908   1.081       .  S
C1900      C1903   1.495       .  S
C1900      C1901   1.407       .  A
C1901      C1902   1.407   1_545  A
C1901      H1909   1.083       .  S
C1902      H1910   1.082       .  S
C1903      H1911   1.087       .  S
C1903      C1904   1.348       .  D
C1904      H1912   1.085       .  S
C1905      H1913   1.085       .  S
C1905      C1906   1.349       .  D
C1906      H1914   1.085       .  S
C1915      C1923   1.490       .  S
C1915      C1916   1.404       .  A
C1915      C1920   1.408       .  A
C1916      C1917   1.399       .  A
C1916      H1925   1.083   1_545  S
C1917      C1918   1.408       .  A
C1917      H1926   1.082   1_545  S
C1918      C1921   1.491       .  S
C1918      C1919   1.404       .  A
C1919      C1920   1.401       .  A
C1919      H1927   1.083       .  S
C1920      H1928   1.081       .  S
C1921      H1929   1.087       .  S
C1921      C1922   1.347       .  D
C1922      H1930   1.085       .  S
C1923      H1931   1.087       .  S
C1923      C1924   1.348       .  D
C1924      H1932   1.085       .  S
C1933      C1941   1.489       .  S
C1933      C1934   1.404       .  A
C1933      C1938   1.410       .  A
C1934      C1935   1.396       .  A
C1934      H1943   1.083       .  S
C1935      C1936   1.406       .  A
C1935      H1944   1.082       .  S
C1936      C1939   1.483       .  S
C1936      C1937   1.401       .  A
C1937      C1938   1.399       .  A
C1937      H1945   1.083       .  S
C1938      H1946   1.079       .  S
C1939      H1947   1.087       .  S
C1939      C1940   1.343       .  D
C1940      H1948   1.086       .  S
C1941      H1949   1.087       .  S
C1941      C1942   1.346       .  D
C1942      H1950   1.082       .  S
C1951      C1959   1.484       .  S
C1951      C1952   1.401       .  A
C1951      C1956   1.407       .  A
C1952      C1953   1.395       .  A
C1952      H1961   1.084       .  S
C1953      C1954   1.408       .  A
C1953      H1962   1.082       .  S
C1954      C1957   1.490       .  S
C1954      C1955   1.405       .  A
C1955      C1956   1.405       .  A
C1955      H1963   1.083       .  S
C1956      H1964   1.082       .  S
C1957      H1965   1.086       .  S
C1957      C1958   1.346       .  D
C1958      H1966   1.086       .  S
C1959      H1967   1.087       .  S
C1959      C1960   1.347       .  D
C1960      H1968   1.085       .  S
C1969      C1977   1.486       .  S
C1969      C1970   1.403       .  A
C1969      C1974   1.408       .  A
C1970      C1971   1.398       .  A
C1970      H1979   1.083       .  S
C1971      C1972   1.407       .  A
C1971      H1980   1.081       .  S
C1972      C1975   1.487       .  S
C1972      C1973   1.404       .  A
C1973      C1974   1.399       .  A
C1973      H1981   1.083       .  S
C1974      H1982   1.081       .  S
C1975      H1983   1.087       .  S
C1975      C1976   1.346       .  D
C1976      H1984   1.084       .  S
C1977      H1985   1.087       .  S
C1977      C1978   1.345       .  D
C1978      H1986   1.084       .  S
C1987      C1995   1.489       .  S
C1987      C1988   1.402       .  A
C1987      C1992   1.408       .  A
C1988      C1989   1.396       .  A
C1988      H1997   1.084       .  S
C1989      C1990   1.407       .  A
C1989      H1998   1.082       .  S
C1990      C1993   1.493       .  S
C1990      C1991   1.407       .  A
C1991      C1992   1.407       .  A
C1991      H1999   1.083       .  S
C1992      H2000   1.082       .  S
C1993      H2001   1.086       .  S
C1993      C1994   1.347       .  D
C1994      H2002   1.086       .  S
C1995      H2003   1.086       .  S
C1995      C1996   1.349       .  D
C1996      H2004   1.085       .  S
C2005      C2013   1.493       .  S
C2005      C2006   1.405       .  A
C2005      C2010   1.408       .  A
C2006      C2007   1.402       .  A
C2006      H2015   1.084       .  S
C2007      C2008   1.407       .  A
C2007      H2016   1.082       .  S
C2008      C2011   1.487       .  S
C2008      C2009   1.403       .  A
C2009      C2010   1.398       .  A
C2009      H2017   1.083       .  S
C2010      H2018   1.081       .  S
C2011      H2019   1.087       .  S
C2011      C2012   1.347       .  D
C2012      H2020   1.085       .  S
C2013      H2021   1.087       .  S
C2013      C2014   1.347       .  D
C2014      H2022   1.084       .  S
C2023      C2031   1.491       .  S
C2023      C2024   1.403       .  A
C2023      C2028   1.410       .  A
C2024      C2025   1.396       .  A
C2024      H2033   1.084       .  S
C2025      C2026   1.407       .  A
C2025      H2034   1.081       .  S
C2026      C2029   1.490       .  S
C2026      C2027   1.404       .  A
C2027      C2028   1.402       .  A
C2027      H2035   1.083       .  S
C2028      H2036   1.080       .  S
C2029      H2037   1.087       .  S
C2029      C2030   1.345       .  D
C2030      H2038   1.085       .  S
C2031      H2039   1.087       .  S
C2031      C2032   1.347       .  D
C2032      H2040   1.083       .  S
C2041      C2049   1.484       .  S
C2041      C2042   1.402       .  A
C2041      C2046   1.407       .  A
C2042      C2043   1.397       .  A
C2042      H2051   1.083       .  S
C2043      C2044   1.407       .  A
C2043      H2052   1.081       .  S
C2044      C2047   1.487       .  S
C2044      C2045   1.405       .  A
C2045      C2046   1.401       .  A
C2045      H2053   1.084       .  S
C2046      H2054   1.082       .  S
C2047      H2055   1.087       .  S
C2047      C2048   1.345       .  D
C2048      H2056   1.086       .  S
C2049      H2057   1.087       .  S
C2049      C2050   1.345       .  D
C2050      H2058   1.085       .  S
C2059      C2067   1.488       .  S
C2059      C2060   1.403       .  A
C2059      C2064   1.406       .  A
C2060      C2061   1.401       .  A
C2060      H2069   1.082       .  S
C2061      C2062   1.410       .  A
C2061      H2070   1.080       .  S
C2062      C2065   1.491       .  S
C2062      C2063   1.404       .  A
C2063      C2064   1.397       .  A
C2063      H2071   1.083       .  S
C2064      H2072   1.082       .  S
C2065      H2073   1.088       .  S
C2065      C2066   1.347       .  D
C2066      H2074   1.083       .  S
C2067      H2075   1.086       .  S
C2067      C2068   1.347       .  D
C2068      H2076   1.084       .  S
C2077      C2085   1.492       .  S
C2077      C2078   1.405       .  A
C2077      C2082   1.409       .  A
C2078      C2079   1.399       .  A
C2078      H2087   1.083       .  S
C2079      C2080   1.406       .  A
C2079      H2088   1.082       .  S
C2080      C2083   1.489       .  S
C2080      C2081   1.405       .  A
C2081      C2082   1.403       .  A
C2081      H2089   1.083       .  S
C2082      H2090   1.081       .  S
C2083      H2091   1.087       .  S
C2083      C2084   1.348       .  D
C2084      H2092   1.086       .  S
C2085      H2093   1.085       .  S
C2085      C2086   1.350       .  D
C2086      H2094   1.084       .  S
C2095      C2103   1.487       .  S
C2095      C2096   1.403       .  A
C2095      C2100   1.407       .  A
C2096      C2097   1.396       .  A
C2096      H2105   1.083       .  S
C2097      C2098   1.407       .  A
C2097      H2106   1.081       .  S
C2098      C2101   1.491       .  S
C2098      C2099   1.406       .  A
C2099      C2100   1.403       .  A
C2099      H2107   1.083       .  S
C2100      H2108   1.082       .  S
C2101      H2109   1.086       .  S
C2101      C2102   1.348       .  D
C2102      H2110   1.085       .  S
C2103      H2111   1.087       .  S
C2103      C2104   1.347       .  D
C2104      H2112   1.085       .  S
C2113      C2121   1.491       .  S
C2113      C2114   1.404       .  A
C2113      C2118   1.409       .  A
C2114      C2115   1.398       .  A
C2114      H2123   1.083       .  S
C2115      C2116   1.408       .  A
C2115      H2124   1.080       .  S
C2116      C2119   1.490       .  S
C2116      C2117   1.404       .  A
C2117      C2118   1.398       .  A
C2117      H2125   1.084       .  S
C2118      H2126   1.079       .  S
C2119      H2127   1.087       .  S
C2119      C2120   1.347       .  D
C2120      H2128   1.083       .  S
C2121      H2129   1.087       .  S
C2121      C2122   1.347       .  D
C2122      H2130   1.083       .  S
C2131      C2139   1.484       .  S
C2131      C2132   1.404       .  A
C2131      C2136   1.405       .  A
C2132      C2133   1.402       .  A
C2132      H2141   1.083       .  S
C2133      C2134   1.408       .  A
C2133      H2142   1.082       .  S
C2134      C2137   1.484       .  S
C2134      C2135   1.402       .  A
C2135      C2136   1.397       .  A
C2135      H2143   1.083       .  S
C2136      H2144   1.083   1_545  S
C2137      H2145   1.087       .  S
C2137      C2138   1.346       .  D
C2138      H2146   1.085       .  S
C2139      H2147   1.087       .  S
C2139      C2140   1.345       .  D
C2140      H2148   1.087       .  S
C2149      C2157   1.493       .  S
C2149      C2150   1.403       .  A
C2149      C2154   1.409       .  A
C2150      C2151   1.398       .  A
C2150      H2159   1.083       .  S
C2151      C2152   1.410       .  A
C2151      H2160   1.079       .  S
C2152      C2155   1.497       .  S
C2152      C2153   1.406       .  A
C2153      C2154   1.402       .  A
C2153      H2161   1.083       .  S
C2154      H2162   1.080       .  S
C2155      H2163   1.087       .  S
C2155      C2156   1.349       .  D
C2156      H2164   1.081       .  S
C2157      H2165   1.088       .  S
C2157      C2158   1.348       .  D
C2158      H2166   1.084       .  S
C2167      C2175   1.493       .  S
C2167      C2168   1.407       .  A
C2167      C2172   1.407       .  A
C2168      C2169   1.405       .  A
C2168      H2177   1.083       .  S
C2169      C2170   1.408       .  A
C2169      H2178   1.082       .  S
C2170      C2173   1.487       .  S
C2170      C2171   1.402       .  A
C2171      C2172   1.394       .  A
C2171      H2179   1.083       .  S
C2172      H2180   1.081   1_545  S
C2173      H2181   1.087       .  S
C2173      C2174   1.347       .  D
C2174      H2182   1.085       .  S
C2175      H2183   1.086       .  S
C2175      C2176   1.348   1_545  D
C2176      H2184   1.084       .  S
C2185      C2193   1.488       .  S
C2185      C2186   1.403       .  A
C2185      C2190   1.409       .  A
C2186      C2187   1.396       .  A
C2186      H2195   1.084       .  S
C2187      C2188   1.406       .  A
C2187      H2196   1.083       .  S
C2188      C2191   1.491       .  S
C2188      C2189   1.405       .  A
C2189      C2190   1.405       .  A
C2189      H2197   1.083       .  S
C2190      H2198   1.081       .  S
C2191      H2199   1.087       .  S
C2191      C2192   1.347       .  D
C2192      H2200   1.086       .  S
C2193      H2201   1.088       .  S
C2193      C2194   1.347       .  D
C2194      H2202   1.085       .  S
C2203      C2211   1.489       .  S
C2203      C2204   1.404       .  A
C2203      C2208   1.407       .  A
C2204      C2205   1.402       .  A
C2204      H2213   1.082       .  S
C2205      C2206   1.410       .  A
C2205      H2214   1.080       .  S
C2206      C2209   1.489       .  S
C2206      C2207   1.403       .  A
C2207      C2208   1.395       .  A
C2207      H2215   1.083       .  S
C2208      H2216   1.082       .  S
C2209      H2217   1.088       .  S
C2209      C2210   1.346       .  D
C2210      H2218   1.083       .  S
C2211      H2219   1.087       .  S
C2211      C2212   1.346       .  D
C2212      H2220   1.085       .  S
C2221      C2229   1.489       .  S
C2221      C2222   1.404       .  A
C2221      C2226   1.408       .  A
C2222      C2223   1.399       .  A
C2222      H2231   1.084       .  S
C2223      C2224   1.408       .  A
C2223      H2232   1.080       .  S
C2224      C2227   1.488       .  S
C2224      C2225   1.403       .  A
C2225      C2226   1.397       .  A
C2225      H2233   1.084       .  S
C2226      H2234   1.081       .  S
C2227      H2235   1.087       .  S
C2227      C2228   1.346       .  D
C2228      H2236   1.083       .  S
C2229      H2237   1.087       .  S
C2229      C2230   1.346       .  D
C2230      H2238   1.084       .  S
C2239      C2247   1.489       .  S
C2239      C2240   1.403       .  A
C2239      C2244   1.409       .  A
C2240      C2241   1.396       .  A
C2240      H2249   1.083       .  S
C2241      C2242   1.407       .  A
C2241      H2250   1.081       .  S
C2242      C2245   1.488       .  S
C2242      C2243   1.404       .  A
C2243      C2244   1.401       .  A
C2243      H2251   1.084       .  S
C2244      H2252   1.080       .  S
C2245      H2253   1.087       .  S
C2245      C2246   1.346       .  D
C2246      H2254   1.085       .  S
C2247      H2255   1.087       .  S
C2247      C2248   1.346       .  D
C2248      H2256   1.083       .  S
C2257      C2265   1.486       .  S
C2257      C2258   1.403       .  A
C2257      C2262   1.406       .  A
C2258      C2259   1.400       .  A
C2258      H2267   1.084       .  S
C2259      C2260   1.408       .  A
C2259      H2268   1.081       .  S
C2260      C2263   1.487       .  S
C2260      C2261   1.404       .  A
C2261      C2262   1.397       .  A
C2261      H2269   1.084       .  S
C2262      H2270   1.082       .  S
C2263      H2271   1.088       .  S
C2263      C2264   1.346       .  D
C2264      H2272   1.084       .  S
C2265      H2273   1.087       .  S
C2265      C2266   1.347       .  D
C2266      H2274   1.085       .  S
C2275      C2283   1.483       .  S
C2275      C2276   1.403       .  A
C2275      C2280   1.407       .  A
C2276      C2277   1.399       .  A
C2276      H2285   1.084       .  S
C2277      C2278   1.408       .  A
C2277      H2286   1.081       .  S
C2278      C2281   1.483       .  S
C2278      C2279   1.402       .  A
C2279      C2280   1.394       .  A
C2279      H2287   1.084       .  S
C2280      H2288   1.082       .  S
C2281      H2289   1.088       .  S
C2281      C2282   1.344       .  D
C2282      H2290   1.084       .  S
C2283      H2291   1.087       .  S
C2283      C2284   1.344       .  D
C2284      H2292   1.085       .  S
C2293      C2301   1.485       .  S
C2293      C2294   1.403       .  A
C2293      C2298   1.407       .  A
C2294      C2295   1.400       .  A
C2294      H2303   1.083       .  S
C2295      C2296   1.407       .  A
C2295      H2304   1.081       .  S
C2296      C2299   1.486       .  S
C2296      C2297   1.404       .  A
C2297      C2298   1.397       .  A
C2297      H2305   1.084       .  S
C2298      H2306   1.082       .  S
C2299      H2307   1.087       .  S
C2299      C2300   1.347       .  D
C2300      H2308   1.084       .  S
C2301      H2309   1.087       .  S
C2301      C2302   1.346       .  D
C2302      H2310   1.085       .  S
C2311      C2319   1.482       .  S
C2311      C2312   1.403       .  A
C2311      C2316   1.407   1_455  A
C2312      C2313   1.398       .  A
C2312      H2321   1.084       .  S
C2313      C2314   1.407       .  A
C2313      H2322   1.082       .  S
C2314      C2317   1.480       .  S
C2314      C2315   1.401   1_455  A
C2315      C2316   1.396       .  A
C2315      H2323   1.084       .  S
C2316      H2324   1.081       .  S
C2317      H2325   1.087   1_455  S
C2317      C2318   1.343       .  D
C2318      H2326   1.086       .  S
C2319      H2327   1.087       .  S
C2319      C2320   1.345       .  D
C2320      H2328   1.085   1_455  S
