geometry optimzed in LAMMPS
_audit_creation_date              2020-11-30 
_audit_creation_method            'lammps2cif' 
_symmetry_space_group_name_H-M    'P1' 
_symmetry_Int_Tables_number       1 
_symmetry_cell_setting            triclinic 
loop_ 
_symmetry_equiv_pos_as_xyz 
  x,y,z 
_cell_length_a                    24.60882233 
_cell_length_b                    25.66028050090433 
_cell_length_c                    26.168817050863353 
_cell_angle_alpha                 90.60035177204136 
_cell_angle_beta                  89.41534271066871 
_cell_angle_gamma                 88.32296761088693 
loop_ 
_atom_site_label 
_atom_site_type_symbol 
_atom_site_fract_x 
_atom_site_fract_y 
_atom_site_fract_z 
_atom_site_charge 
C1          C  0.31717094  0.35534093  0.15381904    -0.02700
C2          C  0.31511784  0.05974661  0.40536648    -0.02700
C3          C  0.06820804  0.06862970  0.15590339    -0.02700
C4          C  0.08149662  0.36534866  0.42692566    -0.02700
C5          C  0.28711878  0.06910150  0.64731635    -0.02700
C6          C  0.05941386  0.09178166  0.94833098    -0.02700
C7          C  0.06525950  0.35169323  0.65871378    -0.02700
C8          C  0.32921175  0.32262784  0.94067949    -0.02700
O9          O  0.50592372  0.42670241  0.12475270    -0.80400
O10         O  0.51486546  0.48948900  0.96695484    -0.80400
O11         O  0.49905751  0.38539267  0.98533847    -0.80400
O12         O  0.50411822  0.56160002  0.07241817    -0.80300
O13         O  0.47080091  0.41308140  0.91046729    -0.80500
O14         O  0.47976430  0.53038965  0.14631924    -0.80400
O15         O  0.47456595  0.56485950  0.97086716    -0.80400
O16         O  0.47298554  0.35714654  0.08725727    -0.80400
C17         C  0.50520598  0.37762865  0.11979830     1.09300
C18         C  0.51309909  0.53673661  0.95324797     1.09200
C19         C  0.50281154  0.38318871  0.93557348     1.09300
C20         C  0.50792071  0.56109958  0.12054033     1.09200
O21         O  0.36799687  0.50646962  0.14395048    -0.80400
O22         O  0.37778648  0.40243971  0.96463537    -0.80400
O23         O  0.35912577  0.38651799  0.07256294    -0.80400
O24         O  0.36549320  0.55100092  0.99997652    -0.80400
O25         O  0.40129845  0.50542579  0.93490289    -0.80400
O26         O  0.39935201  0.40090166  0.14445735    -0.80400
O27         O  0.39306992  0.57580999  0.10231346    -0.80300
O28         O  0.40973825  0.32862337  0.99593077    -0.80400
Co29       Co  0.43794941  0.46658240  0.13057921     1.51500
Co30       Co  0.44577152  0.44906096  0.97298619     1.51700
Co31       Co  0.42870690  0.39337787  0.03038058     1.51600
Co32       Co  0.43400515  0.55386664  0.03758445     1.51500
O33         O  0.43406545  0.47245004  0.04945215    -1.42300
C34         C  0.36339980  0.55509451  0.13621052     1.09300
C35         C  0.37679388  0.35164513  0.96558126     1.09300
C36         C  0.36155466  0.38014403  0.12071510     1.09300
C37         C  0.36589051  0.53903788  0.95268231     1.09300
C38         C  0.31721934  0.58978860  0.16035473    -0.02700
C39         C  0.06100965  0.84229759  0.13896535    -0.02700
C40         C  0.04621870  0.58162013  0.43589621    -0.02700
C41         C  0.28501080  0.85045044  0.44844775    -0.02700
O42         O  0.29663297  0.92330514  0.50668468    -0.80400
O43         O  0.51932623  0.88197276  0.59147085    -0.80400
O44         O  0.48116540  0.93080986  0.43157723    -0.80400
O45         O  0.37483726  0.92963984  0.65799297    -0.80300
O46         O  0.49825701  0.88691018  0.49725980    -0.80500
O47         O  0.35655268  0.88841299  0.58697748    -0.80400
O48         O  0.48855988  0.92426730  0.65904076    -0.80400
O49         O  0.37362131  0.89740792  0.46924815    -0.80400
C50         C  0.32116447  0.89160242  0.47581679     1.09300
C51         C  0.51622996  0.88575579  0.63908301     1.09200
C52         C  0.50839357  0.89334988  0.45118753     1.09300
C53         C  0.35054963  0.89275867  0.63579682     1.09200
O54         O  0.31361429  0.99400775  0.59122900    -0.80400
O55         O  0.53636636  0.99749322  0.48937466    -0.80400
O56         O  0.38373369  0.98986422  0.41499006    -0.80400
O57         O  0.48753244  0.03689271  0.63020228    -0.80400
O58         O  0.55521974  0.99294224  0.59319835    -0.80400
O59         O  0.34613591  0.01687178  0.48798239    -0.80400
O60         O  0.37896925  0.03790469  0.62550873    -0.80300
O61         O  0.45965518  0.03634001  0.46855352    -0.80400
Co62       Co  0.35922059  0.95119000  0.53832283     1.51500
Co63       Co  0.52071768  0.94157214  0.54372518     1.51700
Co64       Co  0.41943965  0.96812733  0.47591008     1.51600
Co65       Co  0.43315116  0.98036474  0.63518708     1.51500
O66         O  0.43942402  0.96360644  0.55515609    -1.42300
C67         C  0.32885760  0.03098770  0.62058639     1.09300
C68         C  0.51109251  0.03412709  0.46510703     1.09300
C69         C  0.35061013  0.02120776  0.43806581     1.09300
C70         C  0.53742855  0.03262903  0.61894724     1.09300
C71         C  0.54868147  0.34908006  0.91034003    -0.02700
C72         C  0.83177473  0.33152403  0.64026033    -0.02700
C73         C  0.57846318  0.07296574  0.63925788    -0.02700
C74         C  0.83370148  0.08686165  0.92012688    -0.02700
C75         C  0.32022041  0.56090120  0.91852652    -0.02700
C76         C  0.30610860  0.86057734  0.66644934    -0.02700
C77         C  0.08275606  0.55428094  0.65684739    -0.02700
C78         C  0.04737890  0.84153053  0.92796734    -0.02700
C79         C  0.55342522  0.85688282  0.42545108    -0.02700
C80         C  0.79596627  0.57769558  0.42720495    -0.02700
C81         C  0.54230832  0.60101790  0.14817426    -0.02700
C82         C  0.80746935  0.84100479  0.13704772    -0.02700
C83         C  0.55993112  0.56098741  0.92208820    -0.02700
C84         C  0.82009027  0.56111297  0.66650599    -0.02700
C85         C  0.55798544  0.85341506  0.67144707    -0.02700
C86         C  0.79630040  0.86112117  0.92887685    -0.02700
O87         O  0.98867920  0.08749607  0.01656580    -0.80400
O88         O  0.88123816  0.88530691  0.97851194    -0.80400
O89         O  0.99946361  0.91789603  0.96521847    -0.80400
O90         O  0.86381226  0.00450766  0.96574523    -0.80300
O91         O  0.98311752  0.84786074  0.00586768    -0.80500
O92         O  0.87600834  0.07805492  0.00683100    -0.80400
O93         O  0.80320310  0.92230295  0.00066042    -0.80400
O94         O  0.00347361  0.01936180  0.96935295    -0.80400
C95         C  0.01176731  0.06658271  0.97745938     1.09300
C96         C  0.82922656  0.88999885  0.97130995     1.09200
C97         C  0.00553429  0.86879719  0.96716816     1.09300
C98         C  0.86018252  0.05465776  0.96655557     1.09200
O99         O  0.87601109  0.04404365  0.11813935    -0.80400
O100        O  0.97125334  0.88320829  0.11163773    -0.80400
O101        O  0.04839903  0.01927212  0.07678566    -0.80400
O102        O  0.85230868  0.91486139  0.09656756    -0.80400
O103        O  0.88477352  0.83673817  0.07541600    -0.80400
O104        O  0.97941127  0.05413953  0.12106493    -0.80400
O105        O  0.81449257  0.01109831  0.06968440    -0.80300
O106        O  0.04440161  0.90849494  0.07202485    -0.80400
Co107      Co  0.92991204  0.05766310  0.06355326     1.51500
Co108      Co  0.92630695  0.89314442  0.04765781     1.51700
Co109      Co  0.01918506  0.96689865  0.02226819     1.51600
Co110      Co  0.86363356  0.95831431  0.02976132     1.51500
O111        O  0.94072872  0.97539472  0.04663731    -1.42300
C112        C  0.82698858  0.03725780  0.10984221     1.09300
C113        C  0.02262181  0.88057250  0.10698627     1.09300
C114        C  0.02943788  0.04671777  0.11532652     1.09300
C115        C  0.85261808  0.86494893  0.10358897     1.09300
C116        C  0.54635005  0.06809171  0.42750606    -0.02700
C117        C  0.78352465  0.06810110  0.14224816    -0.02700
C118        C  0.54777978  0.34536426  0.14904493    -0.02700
C119        C  0.78929972  0.35934236  0.42303665    -0.02700
O120        O  0.98772932  0.39386429  0.44856495    -0.80400
O121        O  0.91088381  0.38154190  0.61007711    -0.80400
O122        O  0.02161347  0.40277954  0.58852363    -0.80400
O123        O  0.81264992  0.42636459  0.48839355    -0.80300
O124        O  0.99171272  0.42208020  0.66615557    -0.80500
O125        O  0.88016029  0.39082565  0.44308841    -0.80400
O126        O  0.83094426  0.41755373  0.59476151    -0.80400
O127        O  0.05097423  0.43519223  0.48946347    -0.80400
C128        C  0.03744181  0.39973559  0.45701929     1.09300
C129        C  0.85957120  0.37967990  0.61364721     1.09200
C130        C  0.02387922  0.39431021  0.63776404     1.09300
C131        C  0.83039990  0.39272863  0.45445059     1.09200
O132        O  0.86915058  0.50526310  0.42629993    -0.80400
O133        O  0.99351513  0.51887749  0.62257297    -0.80400
O134        O  0.00031741  0.53986087  0.50838454    -0.80400
O135        O  0.86769915  0.53300478  0.58990737    -0.80400
O136        O  0.89052682  0.48720487  0.65374733    -0.80400
O137        O  0.98470144  0.50724815  0.43231229    -0.80400
O138        O  0.84415163  0.53985693  0.49891900    -0.80300
O139        O  0.06877751  0.49813829  0.58174877    -0.80400
Co140      Co  0.93031903  0.45057584  0.44645280     1.51500
Co141      Co  0.95002635  0.44955102  0.60814969     1.51700
Co142      Co  0.00512266  0.47216320  0.54735104     1.51600
Co143      Co  0.84498199  0.47710406  0.54255494     1.51500
O144        O  0.92610996  0.45817934  0.52901676    -1.42300
C145        C  0.84165219  0.54073021  0.45127970     1.09300
C146        C  0.04587943  0.52316020  0.61890293     1.09300
C147        C  0.00555594  0.54242792  0.45984618     1.09300
C148        C  0.86491166  0.52765846  0.63694988     1.09300
C149        C  0.57843241  0.38293280  0.18635476    -0.01500
C150        C  0.62676466  0.40888047  0.17596058    -0.09500
C151        C  0.66419218  0.41734335  0.21501697    -0.18400
C152        C  0.65007329  0.40644824  0.26617719     0.04000
C153        C  0.59484131  0.39610884  0.27670848     0.18200
C154        C  0.55881044  0.39041733  0.23660652    -0.19800
C155        C  0.57566046  0.39199299  0.32692961    -0.21100
C156        C  0.61076874  0.39788823  0.36742517    -0.19600
C157        C  0.66583843  0.40630188  0.35817602     0.19600
C158        C  0.68664542  0.40999774  0.30763989     0.01700
C159        C  0.74286743  0.41808386  0.30152770    -0.14300
C160        C  0.77728018  0.41559575  0.34392398    -0.12000
C161        C  0.75647858  0.40169066  0.39244216     0.01300
C162        C  0.70068009  0.41058897  0.39944616    -0.24200
H163        H  0.63420399  0.42567763  0.13906863     0.09300
H164        H  0.70232267  0.43446167  0.20487633     0.12800
H165        H  0.51622130  0.38799886  0.24540910     0.11600
H166        H  0.53329157  0.38450510  0.33485782     0.12700
H167        H  0.59512672  0.39483796  0.40611473     0.11800
H168        H  0.76152027  0.42257508  0.26439729     0.08900
H169        H  0.82078774  0.41462159  0.33705557     0.12100
H170        H  0.68381180  0.42088081  0.43614998     0.14000
C171        C  0.75843268  0.10423282  0.10126869    -0.01500
C172        C  0.71075180  0.09566678  0.07412664    -0.09500
C173        C  0.67471025  0.13782246  0.06559045    -0.18400
C174        C  0.68917981  0.18857071  0.08094497     0.04000
C175        C  0.74432895  0.19634301  0.09376018     0.18200
C176        C  0.78004759  0.15391834  0.09676022    -0.19800
C177        C  0.76345260  0.24593416  0.10415426    -0.21100
C178        C  0.72815243  0.28855323  0.10319888    -0.19600
C179        C  0.67289158  0.28164418  0.09474581     0.19600
C180        C  0.65238840  0.23195232  0.08290499     0.01700
C181        C  0.59607681  0.22856117  0.07392363    -0.14300
C182        C  0.56126216  0.27183723  0.08348055    -0.12000
C183        C  0.58190351  0.31791948  0.10541576     0.01300
C184        C  0.63774985  0.32451463  0.09953798    -0.24200
H185        H  0.70056964  0.05695827  0.06152682     0.09300
H186        H  0.63613908  0.12991280  0.04831162     0.12800
H187        H  0.82190235  0.16020050  0.10736523     0.11600
H188        H  0.80579789  0.25168179  0.11304423     0.12700
H189        H  0.74361919  0.32677857  0.11168568     0.11800
H190        H  0.57770540  0.19238594  0.06335424     0.08900
H191        H  0.51793473  0.26561871  0.08336614     0.12100
H192        H  0.65567280  0.36163656  0.09898873     0.14000
C193        C  0.79922258  0.10837227  0.18702491    -0.01500
C194        C  0.85017894  0.11770043  0.20976880    -0.09500
C195        C  0.85537137  0.15694305  0.24890170    -0.18400
C196        C  0.81050333  0.18975027  0.26509747     0.04000
C197        C  0.76006064  0.17934088  0.24182935     0.18200
C198        C  0.75485006  0.13884185  0.20648847    -0.19800
C199        C  0.71364303  0.20968197  0.25305630    -0.21100
C200        C  0.71471194  0.24926221  0.28865568    -0.19600
C201        C  0.76273333  0.26034587  0.31387703     0.19600
C202        C  0.81188789  0.23216354  0.30287587     0.01700
C203        C  0.85809685  0.24787368  0.33120186    -0.14300
C204        C  0.85524688  0.29076950  0.36735697    -0.12000
C205        C  0.80529352  0.31792657  0.37807054     0.01300
C206        C  0.75995521  0.29928147  0.35118898    -0.24200
H207        H  0.88559936  0.09433054  0.19867981     0.09300
H208        H  0.89445982  0.16103922  0.26639176     0.12800
H209        H  0.71474463  0.13231497  0.19123317     0.11600
H210        H  0.67598424  0.20279359  0.23378440     0.12700
H211        H  0.67730101  0.27147181  0.29654288     0.11800
H212        H  0.89599728  0.22609033  0.32679039     0.08900
H213        H  0.89089723  0.30010253  0.38896698     0.12100
H214        H  0.71984128  0.31454714  0.36115401     0.14000
C215        C  0.52945710  0.11133396  0.38587117    -0.01500
C216        C  0.57483021  0.12428612  0.35474529    -0.09500
C217        C  0.57245530  0.15892264  0.31592749    -0.18400
C218        C  0.52563635  0.18882249  0.30750512     0.04000
C219        C  0.48382101  0.18829998  0.34493724     0.18200
C220        C  0.48385877  0.14723522  0.38278351    -0.19800
C221        C  0.44612432  0.23092291  0.34482445    -0.21100
C222        C  0.44698705  0.26906294  0.30565620    -0.19600
C223        C  0.48465330  0.26489370  0.26449850     0.19600
C224        C  0.52352185  0.22360708  0.26583457     0.01700
C225        C  0.56149989  0.21887955  0.22621920    -0.14300
C226        C  0.56885876  0.25904227  0.19325422    -0.12000
C227        C  0.52960937  0.29950864  0.18587084     0.01300
C228        C  0.48583412  0.30112892  0.22268481    -0.24200
H229        H  0.61456823  0.10636805  0.36011135     0.09300
H230        H  0.61006738  0.16420836  0.29533175     0.12800
H231        H  0.45131982  0.14549951  0.41075745     0.11600
H232        H  0.41645833  0.23535427  0.37543755     0.12700
H233        H  0.41728351  0.30105408  0.30695353     0.11800
H234        H  0.58855361  0.18532276  0.22157686     0.08900
H235        H  0.60750401  0.25757256  0.17388044     0.12100
H236        H  0.45543801  0.33241651  0.22119231     0.14000
C237        C  0.58427915  0.10326976  0.46065713    -0.01500
C238        C  0.56227068  0.15315170  0.47471412    -0.09500
C239        C  0.59340399  0.19798460  0.47152620    -0.18400
C240        C  0.65015179  0.19411995  0.46295948     0.04000
C241        C  0.67394808  0.14337800  0.45788892     0.18200
C242        C  0.64157909  0.09925578  0.45945189    -0.19800
C243        C  0.73037735  0.13648782  0.45235566    -0.21100
C244        C  0.76402852  0.17888626  0.45437335    -0.19600
C245        C  0.74207879  0.22930825  0.46134927     0.19600
C246        C  0.68482810  0.23799317  0.46389315     0.01700
C247        C  0.66570225  0.28976965  0.47230138    -0.14300
C248        C  0.70200367  0.33082007  0.47377953    -0.12000
C249        C  0.75723738  0.32322475  0.46056127     0.01300
C250        C  0.77730048  0.27130417  0.46547038    -0.24200
H251        H  0.51881657  0.15842895  0.48048596     0.09300
H252        H  0.57213958  0.23490196  0.47744659     0.12800
H253        H  0.66280816  0.06268164  0.46198296     0.11600
H254        H  0.74878752  0.09780348  0.44783183     0.12700
H255        H  0.80762009  0.17208242  0.45136901     0.11800
H256        H  0.62362407  0.29938217  0.48078320     0.08900
H257        H  0.68748029  0.36707178  0.49044870     0.12100
H258        H  0.82075480  0.26351320  0.46251634     0.14000
C259        C  0.74532402  0.03110445  0.17280353    -0.01500
C260        C  0.68842059  0.02870946  0.16617626    -0.09500
C261        C  0.65286472  0.02140801  0.20733220    -0.18400
C262        C  0.67224414  0.01560684  0.25739893     0.04000
C263        C  0.72933321  0.01190932  0.26374667     0.18200
C264        C  0.76458233  0.01472595  0.22108834    -0.19800
C265        C  0.75105748  0.00625944  0.31277704    -0.21100
C266        C  0.71710963  0.00347006  0.35549868    -0.19600
C267        C  0.66059776  0.00719166  0.35037066     0.19600
C268        C  0.63724673  0.01291875  0.30126165     0.01700
C269        C  0.57975652  0.01334898  0.29859692    -0.14300
C270        C  0.54785987  0.01539959  0.34337302    -0.12000
C271        C  0.57258992  0.02413862  0.39129259     0.01300
C272        C  0.62694618  0.00686504  0.39420604    -0.24200
H273        H  0.66872752  0.03400233  0.13053515     0.09300
H274        H  0.61006293  0.02232686  0.19891737     0.12800
H275        H  0.80809345  0.01312392  0.22743232     0.11600
H276        H  0.79466548  0.00371483  0.31806501     0.12700
H277        H  0.73514462  0.99921831  0.39288301     0.11800
H278        H  0.55839847  0.01364259  0.26285360     0.08900
H279        H  0.50432329  0.02133689  0.33955545     0.12100
H280        H  0.64312982  0.99428001  0.43032721     0.14000
C281        C  0.58402471  0.89907885  0.70110421    -0.01500
C282        C  0.63332313  0.91949646  0.68694235    -0.09500
C283        C  0.67243495  0.92419745  0.72473212    -0.18400
C284        C  0.65719804  0.92225132  0.77689190     0.04000
C285        C  0.60076797  0.92333066  0.78891773     0.18200
C286        C  0.56352825  0.91456385  0.74981841    -0.19800
C287        C  0.58284364  0.92826469  0.83968356    -0.21100
C288        C  0.62029215  0.92939270  0.87911776    -0.19600
C289        C  0.67601460  0.92390206  0.86836196     0.19600
C290        C  0.69523565  0.92104528  0.81706997     0.01700
C291        C  0.75196896  0.92034580  0.80853128    -0.14300
C292        C  0.78744518  0.91815643  0.84961363    -0.12000
C293        C  0.76724883  0.90617656  0.89870914     0.01300
C294        C  0.71341239  0.92231697  0.90835875    -0.24200
H295        H  0.64532355  0.92073265  0.64701272     0.09300
H296        H  0.71373786  0.92875727  0.71196632     0.12800
H297        H  0.52140816  0.90798398  0.75975196     0.11600
H298        H  0.53980593  0.92980526  0.84893808     0.12700
H299        H  0.60564262  0.93248399  0.91825454     0.11800
H300        H  0.77015981  0.92079134  0.77093405     0.08900
H301        H  0.83060525  0.91444821  0.84128253     0.12100
H302        H  0.70105474  0.93398442  0.94659808     0.14000
C303        C  0.78108925  0.59106291  0.62640699    -0.01500
C304        C  0.72449476  0.58353460  0.61933120    -0.09500
C305        C  0.68712812  0.62577947  0.61374641    -0.18400
C306        C  0.70466731  0.67744140  0.61565954     0.04000
C307        C  0.76175825  0.68417008  0.61444296     0.18200
C308        C  0.79816376  0.64071057  0.61057506    -0.19800
C309        C  0.78242830  0.73382391  0.62137565    -0.21100
C310        C  0.74761536  0.77619103  0.63211290    -0.19600
C311        C  0.69092919  0.77111956  0.63136390     0.19600
C312        C  0.66854136  0.72259187  0.61978416     0.01700
C313        C  0.61161565  0.72233226  0.61253384    -0.14300
C314        C  0.57886761  0.76853335  0.61813031    -0.12000
C315        C  0.59920105  0.81499976  0.63986840     0.01300
C316        C  0.65704301  0.81430915  0.64452714    -0.24200
H317        H  0.70711857  0.54604679  0.61660840     0.09300
H318        H  0.64450851  0.61726410  0.61118324     0.12800
H319        H  0.84137757  0.64770485  0.60908791     0.11600
H320        H  0.82591005  0.73937946  0.62179579     0.12700
H321        H  0.76524678  0.81351750  0.64040470     0.11800
H322        H  0.59190115  0.68717836  0.60083380     0.08900
H323        H  0.53583955  0.76593444  0.61097548     0.12100
H324        H  0.67911609  0.84417574  0.66202253     0.14000
C325        C  0.83380411  0.60903977  0.70285244    -0.01500
C326        C  0.88166420  0.63820436  0.70583130    -0.09500
C327        C  0.88292862  0.68506705  0.73649726    -0.18400
C328        C  0.83586406  0.70484819  0.76327689     0.04000
C329        C  0.78714083  0.67869875  0.75325363     0.18200
C330        C  0.78741250  0.63141125  0.72748722    -0.19800
C331        C  0.73675980  0.69994153  0.76795948    -0.21100
C332        C  0.73356928  0.74383852  0.79804645    -0.19600
C333        C  0.78066326  0.76565137  0.81659727     0.19600
C334        C  0.83288256  0.74863823  0.79928151     0.01700
C335        C  0.87748870  0.77527353  0.82104296    -0.14300
C336        C  0.87006394  0.81111447  0.86364714    -0.12000
C337        C  0.81735217  0.82370738  0.88285292     0.01300
C338        C  0.77408928  0.80320955  0.85439769    -0.24200
H339        H  0.91679052  0.62628101  0.68311228     0.09300
H340        H  0.92032638  0.70609253  0.73815858     0.12800
H341        H  0.74870463  0.61268289  0.72324429     0.11600
H342        H  0.69946126  0.68205511  0.75630665     0.12700
H343        H  0.69384971  0.75868941  0.80994066     0.11800
H344        H  0.91790093  0.76796329  0.80591903     0.08900
H345        H  0.90460023  0.82987965  0.88014798     0.12100
H346        H  0.73268454  0.81530477  0.86427784     0.14000
C347        C  0.53830898  0.81405236  0.71271971    -0.01500
C348        C  0.57713554  0.80354777  0.75113772    -0.09500
C349        C  0.57402687  0.76276925  0.78348746    -0.18400
C350        C  0.53831105  0.72317406  0.77399457     0.04000
C351        C  0.49747166  0.73012231  0.73714595     0.18200
C352        C  0.49713049  0.77626361  0.70642449    -0.19800
C353        C  0.45858753  0.69066022  0.73304020    -0.21100
C354        C  0.45807346  0.64876762  0.76842210    -0.19600
C355        C  0.49939266  0.64299430  0.80533594     0.19600
C356        C  0.54301460  0.67696626  0.80180301     0.01700
C357        C  0.59234983  0.66225323  0.82343369    -0.14300
C358        C  0.59515441  0.62167850  0.85629837    -0.12000
C359        C  0.54788683  0.59805921  0.87537897     0.01300
C360        C  0.49997089  0.60505986  0.84552729    -0.24200
H361        H  0.61391888  0.82506493  0.75479437     0.09300
H362        H  0.60212830  0.76153321  0.81490866     0.12800
H363        H  0.46773037  0.78092972  0.67619968     0.11600
H364        H  0.42653107  0.69412106  0.70512992     0.12700
H365        H  0.42529986  0.62154523  0.76724748     0.11800
H366        H  0.62973258  0.68123755  0.81456642     0.08900
H367        H  0.63521841  0.61100948  0.86987422     0.12100
H368        H  0.46553841  0.58065731  0.85203476     0.14000
C369        C  0.59409645  0.51591741  0.89557724    -0.01500
C370        C  0.64691099  0.50265526  0.91019121    -0.09500
C371        C  0.68923500  0.50231616  0.87432315    -0.18400
C372        C  0.67748650  0.50429089  0.82169829     0.04000
C373        C  0.62250283  0.49977411  0.80709391     0.18200
C374        C  0.58131037  0.50268970  0.84453907    -0.19800
C375        C  0.60919367  0.49263558  0.75563188    -0.21100
C376        C  0.64988154  0.48933913  0.71838713    -0.19600
C377        C  0.70388244  0.49772625  0.73147838     0.19600
C378        C  0.71826368  0.50628147  0.78324642     0.01700
C379        C  0.77327869  0.51502176  0.79423210    -0.14300
C380        C  0.81089460  0.52006768  0.75460204    -0.12000
C381        C  0.79320665  0.52215671  0.70337517     0.01300
C382        C  0.74369017  0.49953158  0.69305501    -0.24200
H383        H  0.65502865  0.49149103  0.94903563     0.09300
H384        H  0.73002506  0.49627296  0.88825530     0.12800
H385        H  0.53920548  0.50377250  0.83271128     0.11600
H386        H  0.56729831  0.48828068  0.74439882     0.12700
H387        H  0.63878971  0.48283905  0.67891002     0.11800
H388        H  0.78763127  0.52069117  0.83264812     0.08900
H389        H  0.85169794  0.53118169  0.76430191     0.12100
H390        H  0.73607005  0.48420497  0.65539152     0.14000
C391        C  0.58994662  0.59935293  0.95944914    -0.01500
C392        C  0.56547039  0.64955283  0.96684018    -0.09500
C393        C  0.59677911  0.69434728  0.96541810    -0.18400
C394        C  0.65426780  0.69058416  0.96122259     0.04000
C395        C  0.67888113  0.64024180  0.96327650     0.18200
C396        C  0.64653089  0.59648529  0.96791169    -0.19800
C397        C  0.73563946  0.63371672  0.96332920    -0.21100
C398        C  0.76871663  0.67667939  0.96260896    -0.19600
C399        C  0.74577182  0.72717681  0.96237812     0.19600
C400        C  0.68839567  0.73466334  0.96005677     0.01700
C401        C  0.66758444  0.78606817  0.96136062    -0.14300
C402        C  0.70198398  0.82803253  0.96373922    -0.12000
C403        C  0.75899986  0.82194782  0.95853743     0.01300
C404        C  0.77988677  0.77031687  0.96499992    -0.24200
H405        H  0.52177275  0.65483446  0.96423137     0.09300
H406        H  0.57459029  0.73115137  0.96637809     0.12800
H407        H  0.66640122  0.56172206  0.98115297     0.11600
H408        H  0.75451931  0.59506815  0.96467286     0.12700
H409        H  0.81243715  0.67041086  0.96355333     0.11800
H410        H  0.62464665  0.79534284  0.96344494     0.08900
H411        H  0.68204958  0.86405113  0.97396923     0.12100
H412        H  0.82360598  0.76344317  0.96473782     0.14000
C413        C  0.56952120  0.63455144  0.10620756    -0.01500
C414        C  0.61747062  0.61396420  0.08295250    -0.09500
C415        C  0.66119854  0.64652365  0.07599523    -0.18400
C416        C  0.65363261  0.70096457  0.08098467     0.04000
C417        C  0.59977694  0.72125825  0.08630046     0.18200
C418        C  0.55792799  0.68772634  0.09786973    -0.19800
C419        C  0.58859487  0.77484805  0.08239076    -0.21100
C420        C  0.63081602  0.80903463  0.07667209    -0.19600
C421        C  0.68466714  0.79018593  0.07740011     0.19600
C422        C  0.69691513  0.73591246  0.07971357     0.01700
C423        C  0.75211296  0.71942858  0.08107250    -0.14300
C424        C  0.79219279  0.75609925  0.08771279    -0.12000
C425        C  0.77698645  0.80910371  0.09616667     0.01300
C426        C  0.72685123  0.82521624  0.07752102    -0.24200
H427        H  0.62556430  0.57221631  0.08189821     0.09300
H428        H  0.70023479  0.62810173  0.06758418     0.12800
H429        H  0.51766380  0.70420528  0.09990406     0.11600
H430        H  0.54723907  0.79042428  0.08501521     0.12700
H431        H  0.62154349  0.85049236  0.07449868     0.11800
H432        H  0.76496621  0.67890385  0.08137401     0.08900
H433        H  0.83320074  0.74212550  0.09555266     0.12100
H434        H  0.72021926  0.86509239  0.06606677     0.14000
C435        C  0.59094540  0.57525844  0.17957162    -0.01500
C436        C  0.63851147  0.60441219  0.18876647    -0.09500
C437        C  0.67984219  0.58638672  0.22039812    -0.18400
C438        C  0.66798666  0.54890070  0.25661288     0.04000
C439        C  0.61566682  0.52811886  0.25649407     0.18200
C440        C  0.58388780  0.53196688  0.21196934    -0.19800
C441        C  0.59294608  0.51264325  0.30318369    -0.21100
C442        C  0.62256650  0.51741884  0.34849530    -0.19600
C443        C  0.67795560  0.52928486  0.34642438     0.19600
C444        C  0.70184583  0.54068774  0.29892124     0.01700
C445        C  0.75864701  0.54140475  0.29496113    -0.14300
C446        C  0.79028904  0.53671439  0.33875145    -0.12000
C447        C  0.76563078  0.54198299  0.38799157     0.01300
C448        C  0.70998370  0.52990891  0.39069544    -0.24200
H449        H  0.64343900  0.64286332  0.17353441     0.09300
H450        H  0.71654872  0.60849491  0.22301314     0.12800
H451        H  0.54673764  0.51062380  0.21050343     0.11600
H452        H  0.55100773  0.50107888  0.30525940     0.12700
H453        H  0.60311477  0.50899138  0.38467151     0.11800
H454        H  0.77864124  0.54537535  0.25821418     0.08900
H455        H  0.83378729  0.54064811  0.33425312     0.12100
H456        H  0.69183607  0.51722609  0.42545088     0.14000
C457        C  0.82019434  0.80034195  0.18053845    -0.01500
C458        C  0.86499059  0.80025711  0.21383605    -0.09500
C459        C  0.86514769  0.77035286  0.25947404    -0.18400
C460        C  0.82001400  0.74028552  0.27360657     0.04000
C461        C  0.77334848  0.74524499  0.24261830     0.18200
C462        C  0.77414948  0.77392295  0.19820034    -0.19800
C463        C  0.72450983  0.72272067  0.25627692    -0.21100
C464        C  0.72135438  0.69313907  0.29947124    -0.19600
C465        C  0.76745795  0.68341933  0.32869276     0.19600
C466        C  0.81775414  0.70606296  0.31697935     0.01700
C467        C  0.86243104  0.69162969  0.34848991    -0.14300
C468        C  0.85858058  0.65030216  0.38445306    -0.12000
C469        C  0.80903824  0.62552290  0.39204521     0.01300
C470        C  0.76311244  0.64848042  0.36817279    -0.24200
H471        H  0.89746924  0.82674705  0.20697368     0.09300
H472        H  0.89983677  0.77262172  0.28428389     0.12800
H473        H  0.73599657  0.77858361  0.17824275     0.11600
H474        H  0.68845673  0.72751198  0.23306465     0.12700
H475        H  0.68336688  0.67484031  0.30812578     0.11800
H476        H  0.90042043  0.71118034  0.34489283     0.08900
H477        H  0.89270355  0.63957486  0.40803711     0.12100
H478        H  0.72298188  0.63462808  0.37730403     0.14000
C479        C  0.53078066  0.81730637  0.38665270    -0.01500
C480        C  0.48393489  0.82509840  0.35635106    -0.09500
C481        C  0.47633568  0.79356112  0.31240269    -0.18400
C482        C  0.51048015  0.74902828  0.30339035     0.04000
C483        C  0.55284132  0.73902513  0.33824420     0.18200
C484        C  0.56739213  0.77675287  0.37201687    -0.19800
C485        C  0.57840401  0.69022268  0.34193236    -0.21100
C486        C  0.56088431  0.65010996  0.31201636    -0.19600
C487        C  0.52493411  0.66067186  0.27251767     0.19600
C488        C  0.50266575  0.71115256  0.26441693     0.01700
C489        C  0.47285032  0.71896717  0.21895905    -0.14300
C490        C  0.47507833  0.67950576  0.18033795    -0.12000
C491        C  0.50532362  0.63243614  0.18834636     0.01300
C492        C  0.51152831  0.62097469  0.23998418    -0.24200
H493        H  0.45603982  0.85768346  0.36387977     0.09300
H494        H  0.44174053  0.80179668  0.28832089     0.12800
H495        H  0.60674190  0.77227984  0.39003831     0.11600
H496        H  0.60892567  0.68217061  0.37066556     0.12700
H497        H  0.57838061  0.61180986  0.31757342     0.11800
H498        H  0.45156991  0.75555298  0.21163531     0.08900
H499        H  0.45280082  0.68543978  0.14545340     0.12100
H500        H  0.51464884  0.58190738  0.25372974     0.14000
C501        C  0.59632416  0.88468407  0.38952761    -0.01500
C502        C  0.65385840  0.88024542  0.39472011    -0.09500
C503        C  0.68981606  0.88237395  0.35297038    -0.18400
C504        C  0.67080408  0.88863154  0.30300315     0.04000
C505        C  0.61394416  0.89508959  0.29679795     0.18200
C506        C  0.57889959  0.89879367  0.33981417    -0.19800
C507        C  0.59227976  0.89849436  0.24761059    -0.21100
C508        C  0.62623585  0.89643673  0.20474063    -0.19600
C509        C  0.68284884  0.89276740  0.21001116     0.19600
C510        C  0.70603030  0.89033273  0.25914245     0.01700
C511        C  0.76306936  0.89504253  0.26194117    -0.14300
C512        C  0.79511607  0.89793707  0.21729515    -0.12000
C513        C  0.77352648  0.88395559  0.16929943     0.01300
C514        C  0.71644207  0.89201971  0.16624759    -0.24200
H515        H  0.67430626  0.87440352  0.42975435     0.09300
H516        H  0.73261988  0.87712700  0.36071999     0.12800
H517        H  0.53608224  0.90643918  0.33339834     0.11600
H518        H  0.54876701  0.90270074  0.24228247     0.12700
H519        H  0.60812491  0.89868351  0.16722644     0.11800
H520        H  0.78362313  0.89845093  0.29797976     0.08900
H521        H  0.83859544  0.90079719  0.22155431     0.12100
H522        H  0.69679256  0.90110808  0.13113114     0.14000
C523        C  0.76199206  0.60825036  0.47125152    -0.01500
C524        C  0.78177528  0.65681834  0.48877696    -0.09500
C525        C  0.74641901  0.70027233  0.49766402    -0.18400
C526        C  0.68953407  0.69541003  0.49523069     0.04000
C527        C  0.67001074  0.64412959  0.48999763     0.18200
C528        C  0.70660312  0.60112438  0.48254691    -0.19800
C529        C  0.61391416  0.63625746  0.48970162    -0.21100
C530        C  0.57703376  0.67852858  0.48869495    -0.19600
C531        C  0.59524887  0.72971221  0.49008455     0.19600
C532        C  0.65128287  0.73895593  0.49697777     0.01700
C533        C  0.66539229  0.79153209  0.50525171    -0.14300
C534        C  0.62740612  0.83256546  0.49565239    -0.12000
C535        C  0.57894597  0.82191817  0.47017647     0.01300
C536        C  0.55866812  0.77178309  0.48038074    -0.24200
H537        H  0.82496107  0.66365062  0.48704499     0.09300
H538        H  0.76448767  0.73757742  0.50409176     0.12800
H539        H  0.69142172  0.56279939  0.48722551     0.11600
H540        H  0.59856338  0.59721134  0.48659533     0.12700
H541        H  0.53416508  0.67113451  0.48461209     0.11800
H542        H  0.70540656  0.80162122  0.51788729     0.08900
H543        H  0.63854406  0.87250307  0.50258950     0.12100
H544        H  0.51713195  0.76342360  0.47043252     0.14000
C545        C  0.06370956  0.59158950  0.70347440    -0.01500
C546        C  0.10867273  0.61558357  0.72696469    -0.09500
C547        C  0.10327726  0.65133472  0.76557622    -0.18400
C548        C  0.05225051  0.66491784  0.78560211     0.04000
C549        C  0.00844729  0.63274327  0.77407745     0.18200
C550        C  0.01319049  0.59706790  0.73085756    -0.19800
C551        C  0.96289584  0.63680786  0.80744971    -0.21100
C552        C  0.95869903  0.67655541  0.84591952    -0.19600
C553        C  0.99872210  0.71489422  0.85041924     0.19600
C554        C  0.04543708  0.70838758  0.81888001     0.01700
C555        C  0.08452861  0.74630550  0.81971628    -0.14300
C556        C  0.08073363  0.78698247  0.85336102    -0.12000
C557        C  0.03508728  0.79773379  0.88596234     0.01300
C558        C  0.99388603  0.75933232  0.88499777    -0.24200
H559        H  0.15004120  0.60680443  0.71448329     0.09300
H560        H  0.14039316  0.66699052  0.78028080     0.12800
H561        H  0.97990798  0.57255268  0.72067302     0.11600
H562        H  0.93001501  0.61000118  0.80327425     0.12700
H563        H  0.92273739  0.67894084  0.87012416     0.11800
H564        H  0.11941872  0.74567917  0.79428306     0.08900
H565        H  0.11684378  0.80992298  0.85500278     0.12100
H566        H  0.96040968  0.76232947  0.91205974     0.14000
C567        C  0.27672258  0.82363983  0.62684388    -0.01500
C568        C  0.30287892  0.77461616  0.61648533    -0.09500
C569        C  0.27340693  0.72840387  0.61630089    -0.18400
C570        C  0.21585774  0.72974658  0.62031696     0.04000
C571        C  0.18938644  0.77943806  0.62091926     0.18200
C572        C  0.21993653  0.82492874  0.61916351    -0.19800
C573        C  0.13244952  0.78371812  0.62292646    -0.21100
C574        C  0.10108101  0.73944598  0.62275069    -0.19600
C575        C  0.12575482  0.68965978  0.62014540     0.19600
C576        C  0.18343136  0.68412549  0.61980822     0.01700
C577        C  0.20584443  0.63324149  0.61516920    -0.14300
C578        C  0.17271929  0.58985764  0.61453231    -0.12000
C579        C  0.11598194  0.59417561  0.62354668     0.01300
C580        C  0.09301149  0.64530006  0.61825153    -0.24200
H581        H  0.34680924  0.77106700  0.61813154     0.09300
H582        H  0.29686941  0.69234300  0.61378413     0.12800
H583        H  0.19838927  0.86026911  0.61035085     0.11600
H584        H  0.11199140  0.82169339  0.62404646     0.12700
H585        H  0.05718170  0.74423384  0.62367303     0.11800
H586        H  0.24885535  0.62570399  0.60990473     0.08900
H587        H  0.19292529  0.55397788  0.60418794     0.12100
H588        H  0.04919897  0.65077081  0.62105832     0.14000
C589        C  0.07001171  0.88782101  0.89433317    -0.01500
C590        C  0.11659059  0.91409133  0.90765261    -0.09500
C591        C  0.15865104  0.91779192  0.87138068    -0.18400
C592        C  0.14836592  0.91021554  0.81881527     0.04000
C593        C  0.09326626  0.90509208  0.80463336     0.18200
C594        C  0.05366992  0.89511603  0.84274654    -0.19800
C595        C  0.07926500  0.90695924  0.75286374    -0.21100
C596        C  0.11922347  0.91260252  0.71509387    -0.19600
C597        C  0.17443894  0.91259633  0.72788170     0.19600
C598        C  0.18971156  0.91046826  0.77994803     0.01700
C599        C  0.24571420  0.91055758  0.79069356    -0.14300
C600        C  0.28450987  0.90978214  0.75105854    -0.12000
C601        C  0.26942660  0.90081540  0.69939062     0.01300
C602        C  0.21469343  0.91360776  0.68898646    -0.24200
H603        H  0.12363456  0.92416885  0.94725022     0.09300
H604        H  0.19803874  0.92834648  0.88511169     0.12800
H605        H  0.01352465  0.88368800  0.83115309     0.11600
H606        H  0.03724380  0.90394812  0.74154921     0.12700
H607        H  0.10710863  0.91425393  0.67543950     0.11800
H608        H  0.26063998  0.91014308  0.82931845     0.08900
H609        H  0.32693150  0.90763595  0.76158130     0.12100
H610        H  0.20343708  0.92591959  0.65127121     0.14000
C611        C  0.11634007  0.51111584  0.68645163    -0.01500
C612        C  0.16949956  0.49438125  0.67373274    -0.09500
C613        C  0.20911132  0.48918843  0.71169260    -0.18400
C614        C  0.19438316  0.49402538  0.76390267     0.04000
C615        C  0.13814511  0.49718455  0.77612075     0.18200
C616        C  0.09987736  0.49978696  0.73699511    -0.19800
C617        C  0.12024808  0.49809489  0.82706255    -0.21100
C618        C  0.15735304  0.49411715  0.86647817    -0.19600
C619        C  0.21308483  0.49195649  0.85572855     0.19600
C620        C  0.23258049  0.49297225  0.80443770     0.01700
C621        C  0.28956702  0.49347664  0.79675649    -0.14300
C622        C  0.32370811  0.50226949  0.83843648    -0.12000
C623        C  0.30065156  0.51272275  0.88743243     0.01300
C624        C  0.25008502  0.49197207  0.89599029    -0.24200
H625        H  0.18000989  0.48359708  0.63488851     0.09300
H626        H  0.25019824  0.47939337  0.69950509     0.12800
H627        H  0.05709581  0.50240029  0.74721182     0.11600
H628        H  0.07723789  0.50067179  0.83640033     0.12700
H629        H  0.14241957  0.49389459  0.90556288     0.11800
H630        H  0.30793407  0.49236675  0.75914448     0.08900
H631        H  0.36567930  0.51135982  0.83063840     0.12100
H632        H  0.23801545  0.48219738  0.93442689     0.14000
C633        C  0.09051164  0.80960243  0.95988076    -0.01500
C634        C  0.14728680  0.81740895  0.95802244    -0.09500
C635        C  0.18483849  0.77600039  0.95730052    -0.18400
C636        C  0.16784545  0.72460371  0.96088594     0.04000
C637        C  0.11162475  0.71624236  0.96707313     0.18200
C638        C  0.07513769  0.75889251  0.97390998    -0.19800
C639        C  0.09228392  0.66551860  0.96532399    -0.21100
C640        C  0.12840425  0.62315684  0.95895651    -0.19600
C641        C  0.18467780  0.63062263  0.95766210     0.19600
C642        C  0.20496695  0.68137143  0.96067644     0.01700
C643        C  0.26109001  0.68642389  0.96860920    -0.14300
C644        C  0.29561339  0.64255813  0.96996133    -0.12000
C645        C  0.27786875  0.59376138  0.95227538     0.01300
C646        C  0.22082449  0.58761443  0.95381902    -0.24200
H647        H  0.16574101  0.85432721  0.95831124     0.09300
H648        H  0.22706485  0.78543592  0.95290787     0.12800
H649        H  0.03243422  0.75138218  0.97975742     0.11600
H650        H  0.04914216  0.65866093  0.96842887     0.12700
H651        H  0.11237602  0.58431291  0.95698472     0.11800
H652        H  0.27899632  0.72348519  0.97647748     0.08900
H653        H  0.33838094  0.64874735  0.97601277     0.12100
H654        H  0.20207499  0.55095709  0.95372800     0.14000
C655        C  0.33371799  0.60322906  0.87742258    -0.01500
C656        C  0.29103800  0.61349404  0.84290718    -0.09500
C657        C  0.29007868  0.65516724  0.81080866    -0.18400
C658        C  0.32867708  0.69378557  0.81473222     0.04000
C659        C  0.37215167  0.68685419  0.84909438     0.18200
C660        C  0.37493517  0.64116554  0.88028937    -0.19800
C661        C  0.41140719  0.72599139  0.85098460    -0.21100
C662        C  0.41064239  0.76744167  0.81540432    -0.19600
C663        C  0.36872146  0.77261800  0.77921109     0.19600
C664        C  0.32464619  0.73883549  0.78422536     0.01700
C665        C  0.27577246  0.75300274  0.76143294    -0.14300
C666        C  0.27332495  0.79316581  0.72781288    -0.12000
C667        C  0.32005277  0.81920428  0.70993381     0.01300
C668        C  0.36805081  0.81103209  0.73924352    -0.24200
H669        H  0.25545209  0.58993787  0.84207026     0.09300
H670        H  0.25763588  0.65643589  0.78331498     0.12800
H671        H  0.40669598  0.63686891  0.90837765     0.11600
H672        H  0.44465856  0.72274016  0.87767233     0.12700
H673        H  0.44333863  0.79477938  0.81563885     0.11800
H674        H  0.23772834  0.73536246  0.77114469     0.08900
H675        H  0.23305991  0.80361753  0.71467707     0.12100
H676        H  0.40245192  0.83559940  0.73314934     0.14000
C677        C  0.61616125  0.04250606  0.67840619    -0.01500
C678        C  0.59655255  0.03798826  0.72937380    -0.09500
C679        C  0.63168736  0.03991580  0.77124291    -0.18400
C680        C  0.68864958  0.03951082  0.76406458     0.04000
C681        C  0.70866982  0.03610935  0.71310392     0.18200
C682        C  0.67269863  0.03425805  0.67191974    -0.19800
C683        C  0.76467243  0.03214768  0.70324440    -0.21100
C684        C  0.80141480  0.03213630  0.74305755    -0.19600
C685        C  0.78304097  0.03554507  0.79372052     0.19600
C686        C  0.72661609  0.03786186  0.80520017     0.01700
C687        C  0.71154840  0.03275041  0.85724287    -0.14300
C688        C  0.75120297  0.03173406  0.89585711    -0.12000
C689        C  0.80504129  0.04588867  0.88412541     0.01300
C690        C  0.82101132  0.03538030  0.83326834    -0.24200
H691        H  0.55320619  0.04061046  0.73709012     0.09300
H692        H  0.61318725  0.04150718  0.80877989     0.12800
H693        H  0.68996463  0.02246420  0.63597985     0.11600
H694        H  0.78019833  0.02923574  0.66437364     0.12700
H695        H  0.84451953  0.02952569  0.73416760     0.11800
H696        H  0.66968803  0.03060235  0.86930330     0.08900
H697        H  0.73722658  0.03233725  0.93527411     0.12100
H698        H  0.86219120  0.02402345  0.82399312     0.14000
C699        C  0.80255445  0.29945603  0.59708245    -0.01500
C700        C  0.74941057  0.31523630  0.58265658    -0.09500
C701        C  0.70859526  0.27800293  0.57906999    -0.18400
C702        C  0.72177339  0.22396043  0.58067944     0.04000
C703        C  0.77775792  0.20937146  0.57933276     0.18200
C704        C  0.81727823  0.24790415  0.58312389    -0.19800
C705        C  0.79378088  0.15666575  0.57456109    -0.21100
C706        C  0.75513664  0.11794522  0.57296447    -0.19600
C707        C  0.69955816  0.13091394  0.57680855     0.19600
C708        C  0.68213472  0.18409432  0.58044657     0.01700
C709        C  0.62560817  0.19462264  0.58093514    -0.14300
C710        C  0.58890962  0.15377023  0.58236731    -0.12000
C711        C  0.60700650  0.10189631  0.59296611     0.01300
C712        C  0.66099611  0.09107112  0.57757482    -0.24200
H713        H  0.73665210  0.35591295  0.58599032     0.09300
H714        H  0.66719318  0.29271622  0.57728280     0.12800
H715        H  0.85868940  0.23819139  0.57261860     0.11600
H716        H  0.83651089  0.14527794  0.57284905     0.12700
H717        H  0.76883729  0.07751435  0.56986995     0.05800
H718        H  0.60852114  0.23379152  0.58067551     0.08900
H719        H  0.54605520  0.16432214  0.58553865     0.12100
H720        H  0.67305359  0.05171010  0.56661857     0.14000
C721        C  0.87154900  0.29843933  0.67726160    -0.01500
C722        C  0.88008710  0.31822894  0.72701128    -0.09500
C723        C  0.87798902  0.28650786  0.76994299    -0.18400
C724        C  0.88393853  0.23207381  0.76493530     0.04000
C725        C  0.89524217  0.21208522  0.71533935     0.18200
C726        C  0.88848553  0.24489467  0.67214578    -0.19800
C727        C  0.91338468  0.15983455  0.70970149    -0.21100
C728        C  0.91823825  0.12719261  0.75225604    -0.19600
C729        C  0.90199763  0.14497629  0.80115595     0.19600
C730        C  0.88416179  0.19766084  0.80764053     0.01700
C731        C  0.87011929  0.21428351  0.85739700    -0.14300
C732        C  0.87061638  0.17920891  0.89769666    -0.12000
C733        C  0.87436879  0.12428435  0.88987031     0.01300
C734        C  0.90186486  0.11051447  0.84355093    -0.24200
H735        H  0.88434928  0.35923083  0.73382577     0.09300
H736        H  0.87670549  0.30597556  0.80667589     0.12800
H737        H  0.90165967  0.22868245  0.63625098     0.11600
H738        H  0.92378856  0.14407406  0.67218355     0.12700
H739        H  0.93230773  0.08714544  0.74649097     0.11800
H740        H  0.85996275  0.25444204  0.86675756     0.08900
H741        H  0.86642333  0.19627921  0.93512358     0.12100
H742        H  0.92257800  0.07304785  0.84007443     0.14000
C743        C  0.55837136  0.12065203  0.67367866    -0.01500
C744        C  0.60285182  0.14900523  0.69203801    -0.09500
C745        C  0.59634640  0.19194975  0.72173037    -0.18400
C746        C  0.54495399  0.20690559  0.73965396     0.04000
C747        C  0.49891186  0.18871232  0.71467333     0.18200
C748        C  0.50512007  0.14341755  0.68214285    -0.19800
C749        C  0.44949284  0.21714503  0.72346142    -0.21100
C750        C  0.44575563  0.25720018  0.76166443    -0.19600
C751        C  0.49018454  0.26647827  0.79419842     0.19600
C752        C  0.53963631  0.23946596  0.78247389     0.01700
C753        C  0.58347879  0.24315408  0.81487649    -0.14300
C754        C  0.58213911  0.27781257  0.85357431    -0.12000
C755        C  0.53486821  0.30679332  0.86860433     0.01300
C756        C  0.48768528  0.30119743  0.83783597    -0.24200
H757        H  0.64450786  0.13801839  0.68212473     0.09300
H758        H  0.63273951  0.21225582  0.73171535     0.12800
H759        H  0.47003699  0.12746725  0.66383311     0.11600
H760        H  0.41376219  0.20789334  0.70175301     0.12700
H761        H  0.40728358  0.27793254  0.76809042     0.11800
H762        H  0.62060368  0.21983200  0.81084324     0.08900
H763        H  0.62085828  0.28344770  0.87179706     0.12100
H764        H  0.45129038  0.32451126  0.84613544     0.14000
C765        C  0.78566272  0.12624989  0.93779565    -0.01500
C766        C  0.78974497  0.16270859  0.97847241    -0.09500
C767        C  0.75411006  0.20718762  0.98106533    -0.18400
C768        C  0.70360685  0.20612121  0.95629188     0.04000
C769        C  0.69641947  0.16577840  0.92103695     0.18200
C770        C  0.74223745  0.13801883  0.90386932    -0.19800
C771        C  0.64447302  0.15337249  0.90436976    -0.21100
C772        C  0.59912820  0.18016640  0.92484208    -0.19600
C773        C  0.60623307  0.22632655  0.95287850     0.19600
C774        C  0.65954170  0.24206032  0.96492502     0.01700
C775        C  0.66594990  0.29369229  0.98215831    -0.14300
C776        C  0.62173125  0.32954932  0.98046394    -0.12000
C777        C  0.57429861  0.31568349  0.95535566     0.01300
C778        C  0.56230978  0.26216036  0.95865132    -0.24200
H779        H  0.82499255  0.16176167  0.00269266     0.09300
H780        H  0.76417900  0.23950951  0.00530425     0.12800
H781        H  0.74241635  0.12422636  0.86489493     0.11600
H782        H  0.63877265  0.12143640  0.87780954     0.12700
H783        H  0.55900646  0.16902613  0.91291005     0.11800
H784        H  0.70499456  0.30743309  0.99403717     0.08900
H785        H  0.62608095  0.36897745  0.99440644     0.12100
H786        H  0.52223766  0.24985093  0.94764456     0.14000
C787        C  0.58887851  0.38383378  0.87821282    -0.01500
C788        C  0.64465769  0.38898677  0.89001605    -0.09500
C789        C  0.68539242  0.38730099  0.85220092    -0.18400
C790        C  0.67200075  0.37772299  0.80132531     0.04000
C791        C  0.61663966  0.37431763  0.78881134     0.18200
C792        C  0.57672909  0.38935690  0.82527876    -0.19800
C793        C  0.60232422  0.35021015  0.74260684    -0.21100
C794        C  0.64293592  0.32690972  0.71147077    -0.19600
C795        C  0.69751905  0.33741537  0.72086932     0.19600
C796        C  0.71137313  0.36865616  0.76248459     0.01700
C797        C  0.76213301  0.39224348  0.76091704    -0.14300
C798        C  0.79256001  0.39075841  0.71496383    -0.12000
C799        C  0.78514566  0.35018074  0.67902149     0.01300
C800        C  0.73920295  0.31911224  0.68865043    -0.24200
H801        H  0.65848126  0.39712061  0.92766852     0.09300
H802        H  0.72734006  0.39036638  0.86361490     0.12800
H803        H  0.53461721  0.39009876  0.81356259     0.11600
H804        H  0.56004942  0.34496955  0.73323176     0.12700
H805        H  0.63172041  0.30432059  0.67818997     0.11800
H806        H  0.77558879  0.41566457  0.79241442     0.08900
H807        H  0.82627041  0.41647851  0.71086265     0.12100
H808        H  0.73450239  0.28148734  0.67106200     0.14000
C809        C  0.25264712  0.82041067  0.49093781    -0.01500
C810        C  0.27168332  0.76958251  0.50340781    -0.09500
C811        C  0.23604366  0.72815244  0.50469627    -0.18400
C812        C  0.17936471  0.73732752  0.50184693     0.04000
C813        C  0.16012961  0.78997835  0.50220273     0.18200
C814        C  0.19750803  0.83067892  0.50243925    -0.19800
C815        C  0.10409147  0.80141236  0.50127817    -0.21100
C816        C  0.06696164  0.76145142  0.49723555    -0.19600
C817        C  0.08491245  0.70910277  0.49628460     0.19600
C818        C  0.14122808  0.69647262  0.50057586     0.01700
C819        C  0.15618937  0.64332071  0.50605382    -0.14300
C820        C  0.11691997  0.60518872  0.50369075    -0.12000
C821        C  0.06747190  0.61660508  0.48088421     0.01300
C822        C  0.04786121  0.66888199  0.48774976    -0.24200
H823        H  0.31487582  0.76014429  0.50225627     0.09300
H824        H  0.25417992  0.68951024  0.50683902     0.12800
H825        H  0.18377921  0.87009747  0.51119405     0.11600
H826        H  0.08905265  0.84152514  0.50167870     0.12700
H827        H  0.02405214  0.77153498  0.49437868     0.11800
H828        H  0.19712585  0.63028829  0.51415935     0.08900
H829        H  0.12638800  0.56585062  0.51556267     0.12100
H830        H  0.00636591  0.67913871  0.47749888     0.14000
C831        C  0.04279077  0.79804316  0.17800518    -0.01500
C832        C  0.99228288  0.77447640  0.18580575    -0.09500
C833        C  0.98651149  0.73427916  0.22353180    -0.18400
C834        C  0.02962834  0.72071325  0.25749616     0.04000
C835        C  0.08012572  0.74306584  0.24647502     0.18200
C836        C  0.08676066  0.77401757  0.20423483    -0.19800
C837        C  0.12474761  0.73625918  0.27818790    -0.21100
C838        C  0.11981637  0.70945859  0.32291251    -0.19600
C839        C  0.07194345  0.68461680  0.33469682     0.19600
C840        C  0.02676627  0.68667036  0.30156455     0.01700
C841        C  0.98368520  0.65303176  0.31391795    -0.14300
C842        C  0.98544693  0.62069637  0.35841926    -0.12000
C843        C  0.02924282  0.62258567  0.39308244     0.01300
C844        C  0.07178317  0.65529663  0.37880767    -0.24200
H845        H  0.95935083  0.78404646  0.16034630     0.09300
H846        H  0.94854316  0.71453482  0.22628324     0.12800
H847        H  0.12802022  0.78302571  0.19378106     0.11600
H848        H  0.16290878  0.75443964  0.26965801     0.12700
H849        H  0.15416184  0.70681619  0.34827686     0.11800
H850        H  0.94994725  0.64945096  0.28810147     0.08900
H851        H  0.95494214  0.59168342  0.36349251     0.12100
H852        H  0.10901066  0.65393159  0.40060616     0.14000
C853        C  0.25078754  0.88309821  0.40811027    -0.01500
C854        C  0.27688995  0.89075175  0.36037859    -0.09500
C855        C  0.24874515  0.88497740  0.31450774    -0.18400
C856        C  0.19155824  0.88035376  0.31406005     0.04000
C857        C  0.16378733  0.88426015  0.36158724     0.18200
C858        C  0.19319262  0.88778274  0.40734781    -0.19800
C859        C  0.10675798  0.88752828  0.36309103    -0.21100
C860        C  0.07689751  0.88864016  0.31811882    -0.19600
C861        C  0.10317309  0.88519109  0.27043152     0.19600
C862        C  0.16062397  0.87850959  0.26806487     0.01700
C863        C  0.18495349  0.87436451  0.21947692    -0.14300
C864        C  0.15394355  0.87631235  0.17519885    -0.12000
C865        C  0.09619152  0.87654786  0.17645559     0.01300
C866        C  0.07235786  0.88852718  0.22506368    -0.24200
H867        H  0.32087515  0.89157320  0.35835447     0.09300
H868        H  0.27291381  0.88577031  0.27999900     0.12800
H869        H  0.16993997  0.89775298  0.44078997     0.11600
H870        H  0.08513082  0.89076677  0.39932167     0.12700
H871        H  0.03301283  0.89285704  0.32064125     0.11800
H872        H  0.22836844  0.87033823  0.21416942     0.08900
H873        H  0.17788561  0.87749700  0.14120274     0.12100
H874        H  0.02838201  0.89128601  0.22823776     0.14000
C875        C  0.33231565  0.63367844  0.19987469    -0.01500
C876        C  0.29112928  0.67275654  0.20727510    -0.09500
C877        C  0.29085278  0.70747988  0.24706487    -0.18400
C878        C  0.32792251  0.70189285  0.28653276     0.04000
C879        C  0.37069239  0.66460255  0.28239586     0.18200
C880        C  0.37257993  0.62965415  0.23900969    -0.19800
C881        C  0.40842071  0.66289860  0.32301026    -0.21100
C882        C  0.40783946  0.70261004  0.36162303    -0.19600
C883        C  0.36396169  0.73915352  0.36543051     0.19600
C884        C  0.32090296  0.73187084  0.33131474     0.01700
C885        C  0.26919992  0.74840198  0.34618905    -0.14300
C886        C  0.26173889  0.77878539  0.38849549    -0.12000
C887        C  0.30574330  0.80359574  0.41258913     0.01300
C888        C  0.35832816  0.77994722  0.40371400    -0.24200
H889        H  0.25557201  0.67513250  0.18345348     0.09300
H890        H  0.25943300  0.73788917  0.24739732     0.12800
H891        H  0.40279735  0.59824110  0.23710325     0.11600
H892        H  0.43940831  0.63226842  0.32399435     0.12700
H893        H  0.43995986  0.70302632  0.38959886     0.11800
H894        H  0.23372847  0.73574481  0.32663600     0.08900
H895        H  0.21985435  0.78774470  0.39906168     0.12100
H896        H  0.39235741  0.79067058  0.42708019     0.14000
C897        C  0.27610773  0.55942554  0.19438566    -0.01500
C898        C  0.29561846  0.53826642  0.24063430    -0.09500
C899        C  0.26218335  0.53673293  0.28443687    -0.18400
C900        C  0.20558473  0.54664849  0.28123974     0.04000
C901        C  0.18416545  0.55808895  0.23287774     0.18200
C902        C  0.21897791  0.56778057  0.19212065    -0.19800
C903        C  0.12778206  0.56178180  0.22554449    -0.21100
C904        C  0.09229716  0.55119694  0.26525374    -0.19600
C905        C  0.11238309  0.54207602  0.31413176     0.19600
C906        C  0.16888067  0.54377773  0.32342964     0.01700
C907        C  0.18568099  0.54199365  0.37441108    -0.14300
C908        C  0.14735122  0.54390014  0.41424656    -0.12000
C909        C  0.09054714  0.54755863  0.40476324     0.01300
C910        C  0.07593713  0.53400442  0.35441738    -0.24200
H911        H  0.33859218  0.52958110  0.24499817     0.09300
H912        H  0.28099579  0.52487096  0.31970716     0.12800
H913        H  0.19892397  0.58689551  0.16199395     0.11600
H914        H  0.11111601  0.57071794  0.18835630     0.12700
H915        H  0.04896765  0.55206520  0.25816715     0.11800
H916        H  0.22813115  0.54136097  0.38451166     0.08900
H917        H  0.16479277  0.54029444  0.45115085     0.12100
H918        H  0.03346750  0.52960300  0.34546620     0.14000
C919        C  0.29344729  0.61804497  0.11222711    -0.01500
C920        C  0.31226507  0.66769585  0.09875038    -0.09500
C921        C  0.27470617  0.70654995  0.08428144    -0.18400
C922        C  0.21926532  0.69459907  0.08031486     0.04000
C923        C  0.20574476  0.64103739  0.08010344     0.18200
C924        C  0.24656701  0.60243820  0.08758697    -0.19800
C925        C  0.15124836  0.62691025  0.08005984    -0.21100
C926        C  0.11003495  0.66493247  0.08421582    -0.19600
C927        C  0.12238018  0.71782372  0.08404226     0.19600
C928        C  0.17690460  0.73338246  0.07927787     0.01700
C929        C  0.18592613  0.78699699  0.07225035    -0.14300
C930        C  0.14263658  0.82355483  0.07658930    -0.12000
C931        C  0.09340972  0.80859793  0.09797364     0.01300
C932        C  0.08068008  0.75567540  0.08989535    -0.24200
H933        H  0.35253118  0.67935490  0.10958797     0.09300
H934        H  0.28874899  0.74591736  0.08215593     0.12800
H935        H  0.23612554  0.56167012  0.08834553     0.11600
H936        H  0.14058698  0.58623722  0.08062508     0.12700
H937        H  0.06827390  0.65295180  0.08725067     0.11800
H938        H  0.22530848  0.80114719  0.06168161     0.08900
H939        H  0.14921877  0.86408663  0.06813093     0.12100
H940        H  0.03946475  0.74314309  0.09587893     0.14000
C941        C  0.29512909  0.36267057  0.90675657    -0.01500
C942        C  0.31643803  0.37190334  0.85728771    -0.09500
C943        C  0.28252487  0.37304201  0.81432046    -0.18400
C944        C  0.22531418  0.37049160  0.81963708     0.04000
C945        C  0.20365373  0.37168778  0.86989457     0.18200
C946        C  0.23835788  0.37219660  0.91209268    -0.19800
C947        C  0.14722670  0.37340642  0.87808374    -0.21100
C948        C  0.11184398  0.37724531  0.83718016    -0.19600
C949        C  0.13196026  0.37804216  0.78704751     0.19600
C950        C  0.18848066  0.37141473  0.77750878     0.01700
C951        C  0.20548050  0.36946977  0.72622395    -0.14300
C952        C  0.16788877  0.37256716  0.68642118    -0.12000
C953        C  0.11063018  0.37621453  0.69474745     0.01300
C954        C  0.09563569  0.38652638  0.74647848    -0.24200
H955        H  0.35994575  0.36898667  0.85077670     0.09300
H956        H  0.30219866  0.37558735  0.77746482     0.12800
H957        H  0.21925361  0.38110409  0.94792535     0.11600
H958        H  0.13035127  0.37372692  0.91649223     0.12700
H959        H  0.06852544  0.38076285  0.84485352     0.11800
H960        H  0.24791867  0.36611014  0.71557157     0.08900
H961        H  0.18692109  0.37607974  0.65021702     0.12100
H962        H  0.05372434  0.39646068  0.75580368     0.14000
C963        C  0.30125053  0.29568760  0.98622628    -0.01500
C964        C  0.31649929  0.24298614  0.99593603    -0.09500
C965        C  0.27645391  0.20611734  0.00075591    -0.18400
C966        C  0.22127207  0.22243752  0.00335483     0.04000
C967        C  0.20870334  0.27684006  0.00597892     0.18200
C968        C  0.25056372  0.31228237  0.00454005    -0.19800
C969        C  0.15482551  0.29537456  0.00801950    -0.21100
C970        C  0.11278454  0.26067052  0.00534610    -0.19600
C971        C  0.12416475  0.20693298  0.00386799     0.19600
C972        C  0.17843024  0.18704314  0.00492864     0.01700
C973        C  0.18680691  0.13269408  0.01061502    -0.14300
C974        C  0.14303141  0.09962709  0.00710954    -0.12000
C975        C  0.09344509  0.11917957  0.98956313     0.01300
C976        C  0.08171348  0.17243131  0.00023513    -0.24200
H977        H  0.35800214  0.22910111  0.98940165     0.09300
H978        H  0.28954720  0.16564416  0.00019123     0.12800
H979        H  0.24357782  0.35265693  0.01535655     0.11600
H980        H  0.14526262  0.33684841  0.00985453     0.12700
H981        H  0.07121997  0.27581440  0.00509463     0.11800
H982        H  0.22588981  0.11522604  0.01962271     0.08900
H983        H  0.14808287  0.05895917  0.01676819     0.12100
H984        H  0.04052463  0.18794048  0.99678285     0.14000
C985        C  0.04945974  0.13641240  0.90882026    -0.01500
C986        C  0.00277032  0.16848067  0.90374528    -0.09500
C987        C  0.00187187  0.20905716  0.86712538    -0.18400
C988        C  0.04423192  0.21292230  0.83038216     0.04000
C989        C  0.09132101  0.18130755  0.83774012     0.18200
C990        C  0.09564153  0.15047362  0.88025186    -0.19800
C991        C  0.13340914  0.17839823  0.80176805    -0.21100
C992        C  0.12844788  0.20506422  0.75677755    -0.19600
C993        C  0.08397310  0.23881704  0.74911610     0.19600
C994        C  0.04236694  0.24555254  0.78629437     0.01700
C995        C  0.00296711  0.28562809  0.77802856    -0.14300
C996        C  0.00379218  0.31612972  0.73312006    -0.12000
C997        C  0.04484578  0.30850030  0.69578327     0.01300
C998        C  0.08412101  0.26861343  0.70558620    -0.24200
H999        H  0.96954154  0.16447609  0.93043665     0.09300
H1000       H  0.96802504  0.23632290  0.86711790     0.12800
H1001       H  0.13519637  0.13347941  0.88856911     0.11600
H1002       H  0.16880735  0.15293709  0.80709938     0.12700
H1003       H  0.16003144  0.20016306  0.72797731     0.11800
H1004       H  0.97432926  0.29657935  0.80791418     0.08900
H1005       H  0.97753337  0.35030476  0.73116735     0.12100
H1006       H  0.12050009  0.26542596  0.68219866     0.14000
C1007       C  0.30957758  0.10813141  0.68910004    -0.01500
C1008       C  0.27017220  0.14546190  0.70654921    -0.09500
C1009       C  0.27802744  0.17709682  0.74775863    -0.18400
C1010       C  0.32292842  0.16952139  0.77903625     0.04000
C1011       C  0.36479519  0.13389005  0.76394933     0.18200
C1012       C  0.35822806  0.10291773  0.71868022    -0.19800
C1013       C  0.41198658  0.13116042  0.79448330    -0.21100
C1014       C  0.41916081  0.16737031  0.83525405    -0.19600
C1015       C  0.37717912  0.20367680  0.84919354     0.19600
C1016       C  0.32694377  0.19881923  0.82434716     0.01700
C1017       C  0.28064722  0.22170029  0.84658412    -0.14300
C1018       C  0.28512987  0.25768904  0.88445313    -0.12000
C1019       C  0.33597548  0.27561009  0.90138527     0.01300
C1020       C  0.38269113  0.24462283  0.88667954    -0.24200
H1021       H  0.23101121  0.14942513  0.68837433     0.09300
H1022       H  0.24787719  0.20776830  0.75477992     0.12800
H1023       H  0.38905627  0.07352189  0.70922895     0.11600
H1024       H  0.44491775  0.10389840  0.78450341     0.12700
H1025       H  0.45757705  0.16751498  0.85507037     0.11800
H1026       H  0.24003428  0.21161294  0.83566303     0.08900
H1027       H  0.24709400  0.27288856  0.90021211     0.12100
H1028       H  0.42128220  0.25102321  0.90475697     0.14000
C1029       C  0.08539756  0.31991258  0.60991542    -0.01500
C1030       C  0.06147380  0.27190178  0.59666593    -0.09500
C1031       C  0.09508981  0.22769229  0.58576287    -0.18400
C1032       C  0.15230616  0.23204826  0.58659449     0.04000
C1033       C  0.17299151  0.28314358  0.58891474     0.18200
C1034       C  0.13688192  0.32636542  0.58979601    -0.19800
C1035       C  0.22887781  0.29066435  0.59240086    -0.21100
C1036       C  0.26458124  0.24824588  0.59722115    -0.19600
C1037       C  0.24562802  0.19746256  0.59419637     0.19600
C1038       C  0.18971757  0.18852002  0.58591827     0.01700
C1039       C  0.17506647  0.13669805  0.57483230    -0.14300
C1040       C  0.21316882  0.09522642  0.58057702    -0.12000
C1041       C  0.26285154  0.10436107  0.60422860     0.01300
C1042       C  0.28251735  0.15514018  0.59870477    -0.24200
H1043       H  0.01880076  0.26614787  0.60468117     0.09300
H1044       H  0.07612505  0.19042051  0.58230167     0.12800
H1045       H  0.15040218  0.36532446  0.58254315     0.11600
H1046       H  0.24486221  0.32953090  0.59347526     0.12700
H1047       H  0.30744140  0.25511153  0.60226993     0.11800
H1048       H  0.13490723  0.12767463  0.56174115     0.08900
H1049       H  0.20153119  0.05571185  0.57220699     0.12100
H1050       H  0.32448442  0.16264053  0.60786505     0.14000
C1051       C  0.08812953  0.04866981  0.91246785    -0.01500
C1052       C  0.06058957  0.03614790  0.86678239    -0.09500
C1053       C  0.08894211  0.03118240  0.82001370    -0.18400
C1054       C  0.14624832  0.03370453  0.81809455     0.04000
C1055       C  0.17393892  0.03394294  0.86521795     0.18200
C1056       C  0.14479241  0.03767145  0.91145914    -0.19800
C1057       C  0.23083520  0.03056888  0.86625795    -0.21100
C1058       C  0.26081224  0.02620492  0.82122131    -0.19600
C1059       C  0.23471676  0.02706270  0.77403903     0.19600
C1060       C  0.17747769  0.03341775  0.77170686     0.01700
C1061       C  0.15451853  0.03938555  0.72310063    -0.14300
C1062       C  0.18761695  0.04363337  0.67946107    -0.12000
C1063       C  0.24540118  0.03915835  0.68183453     0.01300
C1064       C  0.26602385  0.02208683  0.72909833    -0.24200
H1065       H  0.01668165  0.03992011  0.86562099     0.09300
H1066       H  0.06518335  0.02659958  0.78591088     0.12800
H1067       H  0.16844026  0.03354665  0.94502896     0.11600
H1068       H  0.25228990  0.03057360  0.90221656     0.12700
H1069       H  0.30472302  0.02251603  0.82325216     0.11800
H1070       H  0.11118045  0.04446355  0.71823510     0.08900
H1071       H  0.16529631  0.05181001  0.64571469     0.12100
H1072       H  0.30936732  0.01440214  0.73240167     0.14000
C1073       C  0.05140372  0.10922582  0.20098036    -0.01500
C1074       C  0.00423393  0.14199772  0.20622173    -0.09500
C1075       C  0.00244806  0.18510421  0.24180620    -0.18400
C1076       C  0.04793190  0.19743158  0.27260277     0.04000
C1077       C  0.09461285  0.16416106  0.26658730     0.18200
C1078       C  0.09501869  0.12149210  0.23343598    -0.19800
C1079       C  0.14283415  0.17435690  0.29189695    -0.21100
C1080       C  0.14670033  0.21819075  0.32204588    -0.19600
C1081       C  0.10200261  0.25190547  0.32988665     0.19600
C1082       C  0.05102021  0.24157215  0.30788862     0.01700
C1083       C  0.00703297  0.27572616  0.32325730    -0.14300
C1084       C  0.01316497  0.31513074  0.36187242    -0.12000
C1085       C  0.06480859  0.32490674  0.38285485     0.01300
C1086       C  0.10883478  0.29504458  0.36161429    -0.24200
H1087       H  0.97038907  0.13672408  0.18092506     0.09300
H1088       H  0.96660286  0.21039226  0.24273008     0.12800
H1089       H  0.13294964  0.09930916  0.22931630     0.11600
H1090       H  0.17850015  0.14876689  0.28748129     0.12700
H1091       H  0.18443756  0.22455182  0.34140368     0.11800
H1092       H  0.96770013  0.27187063  0.30634433     0.08900
H1093       H  0.97797006  0.33849432  0.37346498     0.12100
H1094       H  0.14972737  0.30302043  0.37396106     0.14000
C1095       C  0.27088688  0.09326537  0.43755136    -0.01500
C1096       C  0.28680548  0.12636525  0.47774220    -0.09500
C1097       C  0.26040783  0.17608215  0.48348322    -0.18400
C1098       C  0.20740482  0.18530807  0.46466766     0.04000
C1099       C  0.18387580  0.14430468  0.43835085     0.18200
C1100       C  0.21829549  0.10578455  0.41714953    -0.19800
C1101       C  0.12783369  0.14508266  0.42913334    -0.21100
C1102       C  0.09503403  0.18688439  0.44677034    -0.19600
C1103       C  0.11912010  0.23208750  0.46529052     0.19600
C1104       C  0.17645089  0.23291584  0.47003018     0.01700
C1105       C  0.20001796  0.28142184  0.47744495    -0.14300
C1106       C  0.16796352  0.32759823  0.47595095    -0.12000
C1107       C  0.11149282  0.32725768  0.46570224     0.01300
C1108       C  0.08727425  0.27822540  0.47263448    -0.24200
H1109       H  0.32677320  0.12078061  0.49409431     0.09300
H1110       H  0.28188551  0.20650323  0.50259685     0.12800
H1111       H  0.20478234  0.09117686  0.38099477     0.11600
H1112       H  0.10941362  0.11284153  0.40939392     0.12700
H1113       H  0.05157533  0.18611094  0.44069479     0.11800
H1114       H  0.24333305  0.28443229  0.48273828     0.08900
H1115       H  0.18802724  0.36234768  0.48644926     0.12100
H1116       H  0.04355726  0.27604874  0.46863419     0.14000
C1117       C  0.08861078  0.01915480  0.18381645    -0.01500
C1118       C  0.06883147  0.00982672  0.23361077    -0.09500
C1119       C  0.10611344  0.00278065  0.27284220    -0.18400
C1120       C  0.16215034  0.99818593  0.26097300     0.04000
C1121       C  0.17775638  0.99220378  0.20875146     0.18200
C1122       C  0.13806633  0.99515074  0.17089193    -0.19800
C1123       C  0.23264082  0.98688870  0.19471997    -0.21100
C1124       C  0.27255540  0.99293121  0.23121376    -0.19600
C1125       C  0.25802843  0.00127842  0.28255490     0.19600
C1126       C  0.20299195  0.99994578  0.29844727     0.01700
C1127       C  0.19199490  0.99747400  0.35129277    -0.14300
C1128       C  0.23400606  0.00212718  0.38631660    -0.12000
C1129       C  0.28354625  0.02249916  0.36967306     0.01300
C1130       C  0.29797427  0.01138761  0.31848562    -0.24200
H1131       H  0.02712558  0.02020476  0.24393836     0.09300
H1132       H  0.09056986  0.00522178  0.31149409     0.12800
H1133       H  0.14866977  0.98913772  0.13092218     0.11600
H1134       H  0.24465142  0.98134134  0.15503669     0.12700
H1135       H  0.31483483  0.99202731  0.21917024     0.11800
H1136       H  0.15180674  0.99169935  0.36656784     0.08900
H1137       H  0.22396065  0.00096101  0.42670148     0.12100
H1138       H  0.33944282  0.00889954  0.30598315     0.14000
C1139       C  0.34818565  0.10173924  0.37280917    -0.01500
C1140       C  0.37934302  0.09282603  0.32717421    -0.09500
C1141       C  0.38045238  0.13113553  0.28762957    -0.18400
C1142       C  0.34978429  0.17883587  0.29319490     0.04000
C1143       C  0.32591203  0.18843214  0.34171462     0.18200
C1144       C  0.33723001  0.15508726  0.38137518    -0.19800
C1145       C  0.29264892  0.23224222  0.35187182    -0.21100
C1146       C  0.27977472  0.26612151  0.31325833    -0.19600
C1147       C  0.30673546  0.26122499  0.26638931     0.19600
C1148       C  0.34495467  0.21993722  0.25620501     0.01700
C1149       C  0.37870195  0.22517913  0.21243624    -0.14300
C1150       C  0.37656268  0.27186463  0.18327242    -0.12000
C1151       C  0.33574389  0.31128938  0.19260003     0.01300
C1152       C  0.29780833  0.30027291  0.23134819    -0.24200
H1153       H  0.40306632  0.05706689  0.32197079     0.09300
H1154       H  0.40330657  0.12236406  0.25294907     0.12800
H1155       H  0.33696591  0.17229785  0.41858017     0.11600
H1156       H  0.27439661  0.23894497  0.38929340     0.12700
H1157       H  0.25181149  0.29870504  0.32142863     0.11800
H1158       H  0.40953298  0.19568652  0.20290946     0.08900
H1159       H  0.40476611  0.27571600  0.15162128     0.12100
H1160       H  0.26107937  0.32411553  0.23594642     0.14000
C1161       C  0.11628701  0.40396455  0.39530620    -0.01500
C1162       C  0.16989952  0.41695589  0.40623130    -0.09500
C1163       C  0.20818066  0.42254196  0.36693015    -0.18400
C1164       C  0.19198732  0.42183516  0.31536651     0.04000
C1165       C  0.13550516  0.42240480  0.30544088     0.18200
C1166       C  0.09827332  0.41669672  0.34568704    -0.19800
C1167       C  0.11651523  0.42803386  0.25548487    -0.21100
C1168       C  0.15280599  0.43290185  0.21489067    -0.19600
C1169       C  0.20878354  0.42894279  0.22313277     0.19600
C1170       C  0.22919867  0.42312233  0.27347586     0.01700
C1171       C  0.28620338  0.41853178  0.27911681    -0.14300
C1172       C  0.31955497  0.41046238  0.23603359    -0.12000
C1173       C  0.29549673  0.40209701  0.18786726     0.01300
C1174       C  0.24475108  0.42628668  0.18118488    -0.24200
H1175       H  0.18167438  0.42664365  0.44445146     0.09300
H1176       H  0.24941861  0.42996197  0.37784796     0.12800
H1177       H  0.05539328  0.41461031  0.33699631     0.11600
H1178       H  0.07330041  0.42916481  0.24785890     0.12700
H1179       H  0.13702261  0.43713864  0.17660730     0.11800
H1180       H  0.30535058  0.41647460  0.31595363     0.08900
H1181       H  0.36181488  0.39944451  0.24209603     0.12100
H1182       H  0.23106022  0.43534531  0.14305112     0.14000
C1183       C  0.10973210  0.10293538  0.12692662    -0.01500
C1184       C  0.16707331  0.09642442  0.12842011    -0.09500
C1185       C  0.20080872  0.13883501  0.12808065    -0.18400
C1186       C  0.17892104  0.18977184  0.12573520     0.04000
C1187       C  0.12196812  0.19667554  0.12196091     0.18200
C1188       C  0.08953336  0.15342017  0.11495862    -0.19800
C1189       C  0.09780317  0.24657861  0.12606510    -0.21100
C1190       C  0.12995103  0.28989512  0.13129045    -0.19600
C1191       C  0.18671266  0.28420007  0.12837819     0.19600
C1192       C  0.21169401  0.23405576  0.12431641     0.01700
C1193       C  0.26741505  0.23058069  0.11222155    -0.14300
C1194       C  0.29621190  0.27555489  0.10370451    -0.12000
C1195       C  0.27585154  0.32416892  0.12186523     0.01300
C1196       C  0.21865157  0.32840471  0.12800530    -0.24200
H1197       H  0.18865092  0.06010182  0.13011663     0.09300
H1198       H  0.24386790  0.13069124  0.13177217     0.12800
H1199       H  0.04607184  0.15984038  0.11062645     0.11600
H1200       H  0.05399581  0.25207249  0.12527479     0.12700
H1201       H  0.11036337  0.32817454  0.13457748     0.11800
H1202       H  0.28863548  0.19391077  0.10457285     0.08900
H1203       H  0.33840852  0.27110559  0.09216134     0.12100
H1204       H  0.19672525  0.36470160  0.13047108     0.14000
loop_ 
_geom_bond_atom_site_label_1 
_geom_bond_atom_site_label_2 
_geom_bond_distance 
_geom_bond_site_symmetry_2 
_ccdc_geom_bond_type 
C1           C36   1.543       .  S
C1         C1151   1.587       .  S
C1         C1173   1.565       .  S
C1         C1195   1.557       .  S
C2           C69   1.567       .  S
C2         C1095   1.595       .  S
C2         C1129   1.559       .  S
C2         C1139   1.614       .  S
C3          C114   1.547       .  S
C3         C1073   1.608       .  S
C3         C1117   1.545       .  S
C3         C1183   1.564       .  S
C4          C128   1.577       .  S
C4         C1085   1.608       .  S
C4         C1107   1.589       .  S
C4         C1161   1.566       .  S
C5           C67   1.553       .  S
C5         C1007   1.589       .  S
C5         C1041   1.565       .  S
C5         C1063   1.582       .  S
C6           C95   1.553       .  S
C6          C975   1.548       .  S
C6          C985   1.567       .  S
C6         C1051   1.588       .  S
C7          C130   1.579       .  S
C7          C953   1.607       .  S
C7          C997   1.571       .  S
C7         C1029   1.576       .  S
C8           C35   1.551       .  S
C8          C941   1.591       .  S
C8          C963   1.549       .  S
C8         C1019   1.581       .  S
O9           C17   1.265       .  A
O9          Co29   1.939       .  S
O10          C18   1.268       .  A
O10         Co30   2.023       .  S
O11          C19   1.305       .  A
O11         Co31   2.088   1_556  S
O12          C20   1.264       .  A
O12         Co32   1.974       .  S
O13          C19   1.275       .  A
O13         Co30   1.955       .  S
O14          C20   1.261       .  A
O14         Co29   2.001       .  S
O15          C18   1.256       .  A
O15         Co32   2.029   1_556  S
O16          C17   1.288       .  A
O16         Co31   2.066       .  S
C17         C118   1.532       .  S
C18          C83   1.554       .  S
C19          C71   1.546       .  S
C20          C81   1.528       .  S
O21          C34   1.268       .  A
O21         Co29   2.003       .  S
O22          C35   1.305       .  A
O22         Co30   2.097       .  S
O23          C36   1.274       .  A
O23         Co31   2.041       .  S
O24          C37   1.272       .  A
O24         Co32   1.964   1_556  S
O25          C37   1.288       .  A
O25         Co30   2.060       .  S
O26          C36   1.253       .  A
O26         Co29   1.994       .  S
O27          C34   1.274       .  A
O27         Co32   2.028       .  S
O28          C35   1.277       .  A
O28         Co31   1.953   1_556  S
Co29         O33   2.133       .  S
Co30         O33   2.098   1_556  S
Co31         O33   2.093       .  S
Co32         O33   2.115       .  S
C34          C38   1.548       .  S
C37          C75   1.540       .  S
C38         C875   1.576       .  S
C38         C897   1.570       .  S
C38         C919   1.570       .  S
C39         C113   1.593       .  S
C39         C831   1.606       .  S
C39         C865   1.590       .  S
C39         C931   1.567       .  S
C40         C147   1.570       .  S
C40         C821   1.576       .  S
C40         C843   1.595       .  S
C40         C909   1.590       .  S
C41          C50   1.572       .  S
C41         C809   1.581       .  S
C41         C853   1.588       .  S
C41         C887   1.587       .  S
O42          C50   1.275       .  A
O42         Co62   1.910       .  S
O43          C51   1.250       .  A
O43         Co63   1.986       .  S
O44          C52   1.271       .  A
O44         Co64   2.104       .  S
O45          C53   1.272       .  A
O45         Co65   2.054       .  S
O46          C52   1.242       .  A
O46         Co63   1.943       .  S
O47          C53   1.288       .  A
O47         Co62   2.066       .  S
O48          C51   1.287       .  A
O48         Co65   2.060       .  S
O49          C50   1.314       .  A
O49         Co64   2.171       .  S
C51          C85   1.563       .  S
C52          C79   1.571       .  S
C53          C76   1.603       .  S
O54          C67   1.282   1_565  A
O54         Co62   2.061       .  S
O55          C68   1.288   1_565  A
O55         Co63   2.072       .  S
O56          C69   1.272   1_565  A
O56         Co64   1.909       .  S
O57          C70   1.261       .  A
O57         Co65   2.006   1_545  S
O58          C70   1.279   1_565  A
O58         Co63   2.046       .  S
O59          C69   1.316       .  A
O59         Co62   2.169   1_545  S
O60          C67   1.259       .  A
O60         Co65   1.980   1_545  S
O61          C68   1.268       .  A
O61         Co64   2.046   1_545  S
Co62         O66   2.060       .  S
Co63         O66   2.081       .  S
Co64         O66   2.140       .  S
Co65         O66   2.137       .  S
C68         C116   1.589       .  S
C70          C73   1.560       .  S
C71         C755   1.578       .  S
C71         C777   1.589       .  S
C71         C787   1.591       .  S
C72         C129   1.593       .  S
C72         C699   1.582       .  S
C72         C721   1.614       .  S
C72         C799   1.584       .  S
C73         C677   1.586       .  S
C73         C711   1.595       .  S
C73         C743   1.577       .  S
C74          C98   1.609       .  S
C74         C689   1.590       .  S
C74         C733   1.614       .  S
C74         C765   1.594       .  S
C75         C623   1.563       .  S
C75         C645   1.578       .  S
C75         C655   1.577       .  S
C76         C567   1.591       .  S
C76         C601   1.592       .  S
C76         C667   1.597       .  S
C77         C146   1.578       .  S
C77         C545   1.601       .  S
C77         C579   1.590       .  S
C77         C611   1.577       .  S
C78          C97   1.589       .  S
C78         C557   1.601       .  S
C78         C589   1.596       .  S
C78         C633   1.574       .  S
C79         C479   1.548       .  S
C79         C501   1.595       .  S
C79         C535   1.604       .  S
C80         C145   1.589       .  S
C80         C447   1.577       .  S
C80         C469   1.580       .  S
C80         C523   1.602       .  S
C81         C413   1.560       .  S
C81         C435   1.591       .  S
C81         C491   1.582       .  S
C82         C115   1.552       .  S
C82         C425   1.553       .  S
C82         C457   1.580       .  S
C82         C513   1.593       .  S
C83         C359   1.582       .  S
C83         C369   1.562       .  S
C83         C391   1.584       .  S
C84         C148   1.570       .  S
C84         C303   1.615       .  S
C84         C325   1.593       .  S
C84         C381   1.554       .  S
C85         C281   1.556       .  S
C85         C315   1.610       .  S
C85         C347   1.569       .  S
C86          C96   1.573       .  S
C86         C293   1.566       .  S
C86         C337   1.605       .  S
C86         C403   1.585       .  S
O87          C95   1.272   1_654  A
O87        Co107   2.059       .  S
O88          C96   1.298       .  A
O88        Co108   2.143   1_556  S
O89          C97   1.266   1_655  A
O89        Co109   2.014   1_656  S
O90          C98   1.287       .  A
O90        Co110   2.062   1_546  S
O91          C97   1.279   1_654  A
O91        Co108   2.085       .  S
O92          C98   1.277   1_554  A
O92        Co107   2.062       .  S
O93          C96   1.278   1_554  A
O93        Co110   1.932       .  S
O94          C95   1.251       .  A
O94        Co109   1.975   1_546  S
O99         C112   1.245       .  A
O99        Co107   1.980       .  S
O100        C113   1.268   1_655  A
O100       Co108   2.030       .  S
O101        C114   1.299       .  A
O101       Co109   2.097   1_545  S
O102        C115   1.296       .  A
O102       Co110   2.104       .  S
O103        C115   1.279       .  A
O103       Co108   1.939       .  S
O104        C114   1.248   1_655  A
O104       Co107   1.947       .  S
O105        C112   1.286       .  A
O105       Co110   2.058   1_545  S
O106        C113   1.290       .  A
O106       Co109   2.081       .  S
Co107       O111   2.161   1_545  S
Co108       O111   2.151       .  S
Co109       O111   2.032   1_455  S
Co110       O111   2.012       .  S
C112        C117   1.552       .  S
C116        C215   1.612       .  S
C116        C237   1.577       .  S
C116        C271   1.584       .  S
C117        C171   1.547       .  S
C117        C193   1.612       .  S
C117        C259   1.574       .  S
C118        C149   1.578       .  S
C118        C183   1.560       .  S
C118        C227   1.600       .  S
C119        C131   1.577       .  S
C119        C161   1.567       .  S
C119        C205   1.615       .  S
C119        C249   1.579       .  S
O120        C128   1.259   1_655  A
O120       Co140   2.000       .  S
O121        C129   1.268       .  A
O121       Co141   2.019       .  S
O122        C130   1.310       .  A
O122       Co142   2.122       .  S
O123        C131   1.296       .  A
O123       Co143   2.093       .  S
O124        C130   1.277   1_655  A
O124       Co141   1.966       .  S
O125        C131   1.257       .  A
O125       Co140   1.998       .  S
O126        C129   1.289       .  A
O126       Co143   2.094       .  S
O127        C128   1.291       .  A
O127       Co142   2.083       .  S
O132        C145   1.287       .  A
O132       Co140   2.103       .  S
O133        C146   1.299   1_655  A
O133       Co141   2.135       .  S
O134        C147   1.278       .  A
O134       Co142   2.025       .  S
O135        C148   1.242       .  A
O135       Co143   1.982       .  S
O136        C148   1.283       .  A
O136       Co141   2.088       .  S
O137        C147   1.272   1_655  A
O137       Co140   2.039       .  S
O138        C145   1.249       .  A
O138       Co143   1.984       .  S
O139        C146   1.277       .  A
O139       Co142   1.946       .  S
Co140       O144   2.169       .  S
Co141       O144   2.170       .  S
Co142       O144   2.048   1_455  S
Co143       O144   2.067       .  S
C149        C150   1.406       .  A
C149        C154   1.406       .  A
C150        C151   1.402       .  A
C150        H163   1.078       .  S
C151        C152   1.413       .  A
C151        H164   1.080       .  S
C152        C158   1.421       .  A
C152        C153   1.417       .  A
C153        C155   1.398       .  A
C153        C154   1.390       .  A
C154        H165   1.074       .  S
C155        C156   1.384       .  A
C155        H166   1.084       .  S
C156        C157   1.398       .  A
C156        H167   1.084       .  S
C157        C158   1.418       .  A
C157        C162   1.391       .  A
C158        C159   1.413       .  A
C159        C160   1.403       .  A
C159        H168   1.079       .  S
C160        C161   1.417       .  A
C160        H169   1.083       .  S
C161        C162   1.395       .  A
C162        H170   1.070       .  S
C171        C172   1.399       .  A
C171        C176   1.401       .  A
C172        C173   1.400       .  A
C172        H185   1.081       .  S
C173        C174   1.415       .  A
C173        H186   1.079       .  S
C174        C180   1.414       .  A
C174        C175   1.421       .  A
C175        C177   1.395       .  A
C175        C176   1.382       .  A
C176        H187   1.086       .  S
C177        C178   1.377       .  A
C177        H188   1.084       .  S
C178        C179   1.396       .  A
C178        H189   1.084       .  S
C179        C180   1.417       .  A
C179        C184   1.383       .  A
C180        C181   1.413       .  A
C181        C182   1.401       .  A
C181        H190   1.079       .  S
C182        C183   1.419       .  A
C182        H191   1.083       .  S
C183        C184   1.397       .  A
C184        H192   1.062       .  S
C193        C194   1.419       .  A
C193        C198   1.412       .  A
C194        C195   1.438       .  A
C194        H207   1.079       .  S
C195        C196   1.427       .  A
C195        H208   1.077       .  S
C196        C202   1.464       .  A
C196        C197   1.419       .  A
C197        C199   1.391       .  A
C197        C198   1.393       .  A
C198        H209   1.085       .  S
C199        C200   1.372       .  A
C199        H210   1.078       .  S
C200        C201   1.395       .  A
C200        H211   1.085       .  S
C201        C202   1.416       .  A
C201        C206   1.389       .  A
C202        C203   1.429       .  A
C203        C204   1.444       .  A
C203        H212   1.078       .  S
C204        C205   1.419       .  A
C204        H213   1.080       .  S
C205        C206   1.417       .  A
C206        H214   1.080       .  S
C215        C216   1.425       .  A
C215        C220   1.434       .  A
C216        C217   1.357       .  A
C216        H229   1.079       .  S
C217        C218   1.386       .  A
C217        H230   1.079       .  S
C218        C224   1.417       .  A
C218        C219   1.414       .  A
C219        C221   1.413       .  A
C219        C220   1.454       .  A
C220        H231   1.082       .  S
C221        C222   1.425       .  A
C221        H232   1.081       .  S
C222        C223   1.415       .  A
C222        H233   1.083       .  S
C223        C224   1.407       .  A
C223        C228   1.444       .  A
C224        C225   1.391       .  A
C225        C226   1.366       .  A
C225        H234   1.078       .  S
C226        C227   1.413       .  A
C226        H235   1.073       .  S
C227        C228   1.437       .  A
C228        H236   1.082       .  S
C237        C238   1.419       .  A
C237        C242   1.411       .  A
C238        C239   1.403       .  A
C238        H251   1.083       .  S
C239        C240   1.413       .  A
C239        H252   1.078       .  S
C240        C246   1.433       .  A
C240        C241   1.416       .  A
C241        C243   1.401       .  A
C241        C242   1.404       .  A
C242        H253   1.064       .  S
C243        C244   1.387       .  A
C243        H254   1.084       .  S
C244        C245   1.397       .  A
C244        H255   1.084       .  S
C245        C246   1.421       .  A
C245        C250   1.407       .  A
C246        C247   1.411       .  A
C247        C248   1.401       .  A
C247        H256   1.078       .  S
C248        C249   1.407       .  A
C248        H257   1.073       .  S
C249        C250   1.415       .  A
C250        H258   1.084       .  S
C259        C260   1.416       .  A
C259        C264   1.418       .  A
C260        C261   1.398       .  A
C260        H273   1.064       .  S
C261        C262   1.407       .  A
C261        H274   1.078       .  S
C262        C268   1.431       .  A
C262        C263   1.417       .  A
C263        C265   1.402       .  A
C263        C264   1.410       .  A
C264        H275   1.085       .  S
C265        C266   1.392       .  A
C265        H276   1.084       .  S
C266        C267   1.399       .  A
C266        H277   1.084   1_545  S
C267        C268   1.420       .  A
C267        C272   1.408       .  A
C268        C269   1.417       .  A
C269        C270   1.403       .  A
C269        H278   1.078       .  S
C270        C271   1.418       .  A
C270        H279   1.084       .  S
C271        C272   1.400       .  A
C272        H280   1.078   1_545  S
C281        C282   1.384       .  A
C281        C286   1.415       .  A
C282        C283   1.394       .  A
C282        H295   1.084       .  S
C283        C284   1.414       .  A
C283        H296   1.077       .  S
C284        C290   1.415       .  A
C284        C285   1.420       .  A
C285        C287   1.399       .  A
C285        C286   1.401       .  A
C286        H297   1.084       .  S
C287        C288   1.391       .  A
C287        H298   1.084       .  S
C288        C289   1.400       .  A
C288        H299   1.084       .  S
C289        C290   1.419       .  A
C289        C294   1.401       .  A
C290        C291   1.411       .  A
C291        C292   1.392       .  A
C291        H300   1.077       .  S
C292        C293   1.413       .  A
C292        H301   1.083       .  S
C293        C294   1.396       .  A
C294        H302   1.080       .  S
C303        C304   1.425       .  A
C303        C308   1.418       .  A
C304        C305   1.411       .  A
C304        H317   1.066       .  S
C305        C306   1.407       .  A
C305        H318   1.080       .  S
C306        C312   1.442       .  A
C306        C307   1.421       .  A
C307        C309   1.396       .  A
C307        C308   1.412       .  A
C308        H319   1.084       .  S
C309        C310   1.389       .  A
C309        H320   1.084       .  S
C310        C311   1.405       .  A
C310        H321   1.084       .  S
C311        C312   1.408       .  A
C311        C316   1.405       .  A
C312        C313   1.416       .  A
C313        C314   1.419       .  A
C313        H322   1.080       .  S
C314        C315   1.422       .  A
C314        H323   1.081       .  S
C315        C316   1.429       .  A
C316        H324   1.056       .  S
C325        C326   1.416       .  A
C325        C330   1.410       .  A
C326        C327   1.440       .  A
C326        H339   1.079       .  S
C327        C328   1.425       .  A
C327        H340   1.081       .  S
C328        C334   1.459       .  A
C328        C329   1.417       .  A
C329        C331   1.389       .  A
C329        C330   1.382       .  A
C330        H341   1.086       .  S
C331        C332   1.367       .  A
C331        H342   1.083       .  S
C332        C333   1.391       .  A
C332        H343   1.080       .  S
C333        C334   1.414       .  A
C333        C338   1.379       .  A
C334        C335   1.430       .  A
C335        C336   1.445       .  A
C335        H344   1.077       .  S
C336        C337   1.414       .  A
C336        H345   1.081       .  S
C337        C338   1.416       .  A
C338        H346   1.084       .  S
C347        C348   1.417       .  A
C347        C352   1.432       .  A
C348        C349   1.356       .  A
C348        H361   1.079       .  S
C349        C350   1.385       .  A
C349        H362   1.080       .  S
C350        C356   1.400       .  A
C350        C351   1.409       .  A
C351        C353   1.417       .  A
C351        C352   1.438       .  A
C352        H363   1.083       .  S
C353        C354   1.426       .  A
C353        H364   1.083       .  S
C354        C355   1.415       .  A
C354        H365   1.083       .  S
C355        C356   1.405       .  A
C355        C360   1.440       .  A
C356        C357   1.389       .  A
C357        C358   1.358       .  A
C357        H366   1.078       .  S
C358        C359   1.416       .  A
C358        H367   1.080       .  S
C359        C360   1.429       .  A
C360        H368   1.081       .  S
C369        C370   1.392       .  A
C369        C374   1.415       .  A
C370        C371   1.395       .  A
C370        H383   1.078       .  S
C371        C372   1.411       .  A
C371        H384   1.079       .  S
C372        C378   1.416       .  A
C372        C373   1.417       .  A
C373        C375   1.401       .  A
C373        C374   1.403       .  A
C374        H385   1.084       .  S
C375        C376   1.390       .  A
C375        H386   1.084       .  S
C376        C377   1.398       .  A
C376        H387   1.084       .  S
C377        C378   1.420       .  A
C377        C382   1.399       .  A
C378        C379   1.411       .  A
C379        C380   1.393       .  A
C379        H388   1.079       .  S
C380        C381   1.415       .  A
C380        H389   1.084       .  S
C381        C382   1.393       .  A
C382        H390   1.078       .  S
C391        C392   1.417       .  A
C391        C396   1.412       .  A
C392        C393   1.403       .  A
C392        H405   1.083       .  S
C393        C394   1.418       .  A
C393        H406   1.077       .  S
C394        C400   1.429       .  A
C394        C395   1.412       .  A
C395        C397   1.402       .  A
C395        C396   1.401       .  A
C396        H407   1.067       .  S
C397        C398   1.390       .  A
C397        H408   1.084       .  S
C398        C399   1.398       .  A
C398        H409   1.084       .  S
C399        C400   1.421       .  A
C399        C404   1.410       .  A
C400        C401   1.401       .  A
C401        C402   1.390       .  A
C401        H410   1.077       .  S
C402        C403   1.412       .  A
C402        H411   1.064       .  S
C403        C404   1.419       .  A
C404        H412   1.085       .  S
C413        C414   1.409       .  A
C413        C418   1.406       .  A
C414        C415   1.393       .  A
C414        H427   1.084       .  S
C415        C416   1.408       .  A
C415        H428   1.078       .  S
C416        C422   1.413       .  A
C416        C417   1.415       .  A
C417        C419   1.399       .  A
C417        C418   1.394       .  A
C418        H429   1.066       .  S
C419        C420   1.387       .  A
C419        H430   1.084       .  S
C420        C421   1.398       .  A
C420        H431   1.084       .  S
C421        C422   1.418       .  A
C421        C426   1.393       .  A
C422        C423   1.412       .  A
C423        C424   1.394       .  A
C423        H432   1.078       .  S
C424        C425   1.415       .  A
C424        H433   1.083       .  S
C425        C426   1.385       .  A
C426        H434   1.078       .  S
C435        C436   1.429       .  A
C435        C440   1.418       .  A
C436        C437   1.390       .  A
C436        H449   1.078       .  S
C437        C438   1.392       .  A
C437        H450   1.083       .  S
C438        C444   1.406       .  A
C438        C439   1.408       .  A
C439        C441   1.404       .  A
C439        C440   1.413       .  A
C440        H451   1.080       .  S
C441        C442   1.404       .  A
C441        H452   1.083       .  S
C442        C443   1.406       .  A
C442        H453   1.083       .  S
C443        C444   1.407       .  A
C443        C448   1.408       .  A
C444        C445   1.401       .  A
C445        C446   1.396       .  A
C445        H454   1.083       .  S
C446        C447   1.422       .  A
C446        H455   1.083       .  S
C447        C448   1.414       .  A
C448        H456   1.067       .  S
C457        C458   1.412       .  A
C457        C462   1.413       .  A
C458        C459   1.426       .  A
C458        H471   1.079       .  S
C459        C460   1.419       .  A
C459        H472   1.080       .  S
C460        C466   1.444       .  A
C460        C461   1.416       .  A
C461        C463   1.394       .  A
C461        C462   1.383       .  A
C462        H473   1.083       .  S
C463        C464   1.371       .  A
C463        H474   1.085       .  S
C464        C465   1.393       .  A
C464        H475   1.081       .  S
C465        C466   1.415       .  A
C465        C470   1.380       .  A
C466        C467   1.424       .  A
C467        C468   1.430       .  A
C467        H476   1.078       .  S
C468        C469   1.405       .  A
C468        H477   1.078       .  S
C469        C470   1.413       .  A
C470        H478   1.085       .  S
C479        C480   1.416       .  A
C479        C484   1.404       .  A
C480        C481   1.416       .  A
C480        H493   1.081       .  S
C481        C482   1.415       .  A
C481        H494   1.082       .  S
C482        C488   1.420       .  A
C482        C483   1.412       .  A
C483        C485   1.390       .  A
C483        C484   1.362       .  A
C484        H495   1.085       .  S
C485        C486   1.369       .  A
C485        H496   1.085       .  S
C486        C487   1.391       .  A
C486        H497   1.073       .  S
C487        C488   1.411       .  A
C487        C492   1.371       .  A
C488        C489   1.417       .  A
C489        C490   1.423       .  A
C489        H498   1.081       .  S
C490        C491   1.419       .  A
C490        H499   1.080       .  S
C491        C492   1.395       .  A
C492        H500   1.070       .  S
C501        C502   1.425       .  A
C501        C506   1.421       .  A
C502        C503   1.401       .  A
C502        H515   1.060       .  S
C503        C504   1.402       .  A
C503        H516   1.080       .  S
C504        C510   1.433       .  A
C504        C505   1.415       .  A
C505        C507   1.401       .  A
C505        C506   1.412       .  A
C506        H517   1.081       .  S
C507        C508   1.392       .  A
C507        H518   1.084       .  S
C508        C509   1.402       .  A
C508        H519   1.084       .  S
C509        C510   1.413       .  A
C509        C514   1.405       .  A
C510        C511   1.415       .  A
C511        C512   1.407       .  A
C511        H520   1.079       .  S
C512        C513   1.416       .  A
C512        H521   1.081       .  S
C513        C514   1.417       .  A
C514        H522   1.068       .  S
C523        C524   1.424       .  A
C523        C528   1.409       .  A
C524        C525   1.410       .  A
C524        H537   1.083       .  S
C525        C526   1.411       .  A
C525        H538   1.080       .  S
C526        C532   1.440       .  A
C526        C527   1.420       .  A
C527        C529   1.401       .  A
C527        C528   1.414       .  A
C528        H539   1.070       .  S
C529        C530   1.394       .  A
C529        H540   1.084       .  S
C530        C531   1.400       .  A
C530        H541   1.083       .  S
C531        C532   1.419       .  A
C531        C536   1.412       .  A
C532        C533   1.418       .  A
C533        C534   1.414       .  A
C533        H542   1.080       .  S
C534        C535   1.405       .  A
C534        H543   1.083       .  S
C535        C536   1.420       .  A
C536        H544   1.084       .  S
C545        C546   1.424       .  A
C545        C550   1.431       .  A
C546        C547   1.360       .  A
C546        H559   1.083       .  S
C547        C548   1.389       .  A
C547        H560   1.081       .  S
C548        C554   1.413       .  A
C548        C549   1.410       .  A
C549        C551   1.415   1_455  A
C549        C550   1.449       .  A
C550        H561   1.081   1_455  S
C551        C552   1.426       .  A
C551        H562   1.083       .  S
C552        C553   1.417       .  A
C552        H563   1.083       .  S
C553        C554   1.413   1_655  A
C553        C558   1.450       .  A
C554        C555   1.388       .  A
C555        C556   1.359       .  A
C555        H564   1.081       .  S
C556        C557   1.422       .  A
C556        H565   1.081       .  S
C557        C558   1.435   1_455  A
C558        H566   1.081       .  S
C567        C568   1.419       .  A
C567        C572   1.413       .  A
C568        C569   1.408       .  A
C568        H581   1.084       .  S
C569        C570   1.418       .  A
C569        H582   1.077       .  S
C570        C576   1.436       .  A
C570        C571   1.415       .  A
C571        C573   1.403       .  A
C571        C572   1.408       .  A
C572        H583   1.066       .  S
C573        C574   1.392       .  A
C573        H584   1.084       .  S
C574        C575   1.399       .  A
C574        H585   1.084       .  S
C575        C576   1.422       .  A
C575        C580   1.414       .  A
C576        C577   1.406       .  A
C577        C578   1.399       .  A
C577        H586   1.078       .  S
C578        C579   1.415       .  A
C578        H587   1.065       .  S
C579        C580   1.422       .  A
C580        H588   1.085       .  S
C589        C590   1.392       .  A
C589        C594   1.425       .  A
C590        C591   1.403       .  A
C590        H603   1.082       .  S
C591        C592   1.414       .  A
C591        H604   1.078       .  S
C592        C598   1.432       .  A
C592        C593   1.419       .  A
C593        C595   1.402       .  A
C593        C594   1.418       .  A
C594        H605   1.084       .  S
C595        C596   1.399       .  A
C595        H606   1.083       .  S
C596        C597   1.403       .  A
C596        H607   1.084       .  S
C597        C598   1.418       .  A
C597        C602   1.414       .  A
C598        C599   1.409       .  A
C599        C600   1.402       .  A
C599        H608   1.079       .  S
C600        C601   1.424       .  A
C600        H609   1.082       .  S
C601        C602   1.407       .  A
C602        H610   1.076       .  S
C611        C612   1.401       .  A
C611        C616   1.415       .  A
C612        C613   1.403       .  A
C612        H625   1.078       .  S
C613        C614   1.413       .  A
C613        H626   1.079       .  S
C614        C620   1.424       .  A
C614        C615   1.417       .  A
C615        C617   1.399       .  A
C615        C616   1.399       .  A
C616        H627   1.084       .  S
C617        C618   1.387       .  A
C617        H628   1.084       .  S
C618        C619   1.397       .  A
C618        H629   1.083       .  S
C619        C620   1.422       .  A
C619        C624   1.400       .  A
C620        C621   1.415       .  A
C621        C622   1.404       .  A
C621        H630   1.079       .  S
C622        C623   1.417       .  A
C622        H631   1.083       .  S
C623        C624   1.385       .  A
C624        H632   1.080       .  S
C633        C634   1.418       .  A
C633        C638   1.417       .  A
C634        C635   1.387       .  A
C634        H647   1.062       .  S
C635        C636   1.399       .  A
C635        H648   1.079       .  S
C636        C642   1.416       .  A
C636        C637   1.414       .  A
C637        C639   1.399       .  A
C637        C638   1.404       .  A
C638        H649   1.084       .  S
C639        C640   1.391       .  A
C639        H650   1.084       .  S
C640        C641   1.404       .  A
C640        H651   1.084       .  S
C641        C642   1.410       .  A
C641        C646   1.399       .  A
C642        C643   1.408       .  A
C643        C644   1.391       .  A
C643        H652   1.079       .  S
C644        C645   1.413       .  A
C644        H653   1.082       .  S
C645        C646   1.417       .  A
C646        H654   1.060       .  S
C655        C656   1.413       .  A
C655        C660   1.428       .  A
C656        C657   1.367       .  A
C656        H669   1.079       .  S
C657        C658   1.396       .  A
C657        H670   1.080       .  S
C658        C664   1.413       .  A
C658        C659   1.413       .  A
C659        C661   1.415       .  A
C659        C660   1.436       .  A
C660        H671   1.082       .  S
C661        C662   1.421       .  A
C661        H672   1.083       .  S
C662        C663   1.412       .  A
C662        H673   1.083       .  S
C663        C664   1.414       .  A
C663        C668   1.445       .  A
C664        C665   1.389       .  A
C665        C666   1.362       .  A
C665        H674   1.081       .  S
C666        C667   1.424       .  A
C666        H675   1.079       .  S
C667        C668   1.426       .  A
C668        H676   1.082       .  S
C677        C678   1.421       .  A
C677        C682   1.409       .  A
C678        C679   1.404       .  A
C678        H691   1.084       .  S
C679        C680   1.412       .  A
C679        H692   1.078       .  S
C680        C686   1.433       .  A
C680        C681   1.418       .  A
C681        C683   1.400       .  A
C681        C682   1.403       .  A
C682        H693   1.065       .  S
C683        C684   1.386       .  A
C683        H694   1.084       .  S
C684        C685   1.397       .  A
C684        H695   1.084       .  S
C685        C686   1.417       .  A
C685        C690   1.401       .  A
C686        C687   1.416       .  A
C687        C688   1.412       .  A
C687        H696   1.077       .  S
C688        C689   1.416       .  A
C688        H697   1.084       .  S
C689        C690   1.405       .  A
C690        H698   1.071       .  S
C699        C700   1.414       .  A
C699        C704   1.405       .  A
C700        C701   1.410       .  A
C700        H713   1.084       .  S
C701        C702   1.416       .  A
C701        H714   1.078       .  S
C702        C708   1.434       .  A
C702        C703   1.417       .  A
C703        C705   1.402       .  A
C703        C704   1.411       .  A
C704        H715   1.074       .  S
C705        C706   1.396       .  A
C705        H716   1.083       .  S
C706        C707   1.400       .  A
C706        H717   1.083       .  S
C707        C708   1.420       .  A
C707        C712   1.415       .  A
C708        C709   1.409       .  A
C709        C710   1.404       .  A
C709        H718   1.078       .  S
C710        C711   1.422       .  A
C710        H719   1.083       .  S
C711        C712   1.403       .  A
C712        H720   1.079       .  S
C721        C722   1.412       .  A
C721        C726   1.429       .  A
C722        C723   1.396       .  A
C722        H735   1.074       .  S
C723        C724   1.405       .  A
C723        H736   1.078       .  S
C724        C730   1.432       .  A
C724        C725   1.413       .  A
C725        C727   1.406       .  A
C725        C726   1.425       .  A
C726        H737   1.067       .  S
C727        C728   1.404       .  A
C727        H738   1.083       .  S
C728        C729   1.404       .  A
C728        H739   1.083       .  S
C729        C730   1.417       .  A
C729        C734   1.426       .  A
C730        C731   1.403       .  A
C731        C732   1.394       .  A
C731        H740   1.078       .  S
C732        C733   1.422       .  A
C732        H741   1.071       .  S
C733        C734   1.419       .  A
C734        H742   1.077       .  S
C743        C744   1.417       .  A
C743        C748   1.433       .  A
C744        C745   1.346       .  A
C744        H757   1.083       .  S
C745        C746   1.387       .  A
C745        H758   1.082       .  S
C746        C752   1.393       .  A
C746        C747   1.403       .  A
C747        C749   1.415       .  A
C747        C748   1.437       .  A
C748        H759   1.081       .  S
C749        C750   1.427       .  A
C749        H760   1.083       .  S
C750        C751   1.417       .  A
C750        H761   1.083       .  S
C751        C752   1.412       .  A
C751        C756   1.441       .  A
C752        C753   1.384       .  A
C753        C754   1.340       .  A
C753        H762   1.081       .  S
C754        C755   1.412       .  A
C754        H763   1.083       .  S
C755        C756   1.430       .  A
C756        H764   1.081       .  S
C765        C766   1.416       .  A
C765        C770   1.424       .  A
C766        C767   1.419       .  A
C766        H779   1.079   1_556  S
C767        C768   1.408       .  A
C767        H780   1.075   1_556  S
C768        C774   1.418       .  A
C768        C769   1.396       .  A
C769        C771   1.399       .  A
C769        C770   1.384       .  A
C770        H781   1.076       .  S
C771        C772   1.393       .  A
C771        H782   1.082       .  S
C772        C773   1.403       .  A
C772        H783   1.084       .  S
C773        C774   1.421       .  A
C773        C778   1.404       .  A
C774        C775   1.409       .  A
C775        C776   1.406       .  A
C775        H784   1.081       .  S
C776        C777   1.399       .  A
C776        H785   1.081       .  S
C777        C778   1.416       .  A
C778        H786   1.085       .  S
C787        C788   1.420       .  A
C787        C792   1.428       .  A
C788        C789   1.401       .  A
C788        H801   1.066       .  S
C789        C790   1.396       .  A
C789        H802   1.082       .  S
C790        C796   1.410       .  A
C790        C791   1.409       .  A
C791        C793   1.405       .  A
C791        C792   1.405       .  A
C792        H803   1.083       .  S
C793        C794   1.399       .  A
C793        H804   1.083       .  S
C794        C795   1.401       .  A
C794        H805   1.084       .  S
C795        C796   1.396       .  A
C795        C800   1.389       .  A
C796        C797   1.404       .  A
C797        C798   1.410       .  A
C797        H806   1.076       .  S
C798        C799   1.413       .  A
C798        H807   1.080       .  S
C799        C800   1.424       .  A
C800        H808   1.075       .  S
C809        C810   1.415       .  A
C809        C814   1.404       .  A
C810        C811   1.398       .  A
C810        H823   1.083       .  S
C811        C812   1.411       .  A
C811        H824   1.078       .  S
C812        C818   1.428       .  A
C812        C813   1.418       .  A
C813        C815   1.402       .  A
C813        C814   1.412       .  A
C814        H825   1.079       .  S
C815        C816   1.397       .  A
C815        H826   1.083       .  S
C816        C817   1.402       .  A
C816        H827   1.083       .  S
C817        C818   1.420       .  A
C817        C822   1.415       .  A
C818        C819   1.411       .  A
C819        C820   1.397       .  A
C819        H828   1.076       .  S
C820        C821   1.386       .  A
C820        H829   1.079       .  S
C821        C822   1.421       .  A
C822        H830   1.084       .  S
C831        C832   1.412   1_455  A
C831        C836   1.417       .  A
C832        C833   1.444       .  A
C832        H845   1.079       .  S
C833        C834   1.429   1_655  A
C833        H846   1.078       .  S
C834        C840   1.456       .  A
C834        C835   1.412       .  A
C835        C837   1.391       .  A
C835        C836   1.379       .  A
C836        H847   1.081       .  S
C837        C838   1.370       .  A
C837        H848   1.083       .  S
C838        C839   1.389       .  A
C838        H849   1.081       .  S
C839        C840   1.417       .  A
C839        C844   1.384       .  A
C840        C841   1.423   1_455  A
C841        C842   1.437       .  A
C841        H850   1.081       .  S
C842        C843   1.417   1_655  A
C842        H851   1.081       .  S
C843        C844   1.411       .  A
C844        H852   1.084       .  S
C853        C854   1.417       .  A
C853        C858   1.419       .  A
C854        C855   1.401       .  A
C854        H867   1.084       .  S
C855        C856   1.416       .  A
C855        H868   1.077       .  S
C856        C862   1.432       .  A
C856        C857   1.414       .  A
C857        C859   1.404       .  A
C857        C858   1.409       .  A
C858        H869   1.065       .  S
C859        C860   1.394       .  A
C859        H870   1.084       .  S
C860        C861   1.400       .  A
C860        H871   1.083       .  S
C861        C862   1.420       .  A
C861        C866   1.417       .  A
C862        C863   1.402       .  A
C863        C864   1.394       .  A
C863        H872   1.078       .  S
C864        C865   1.421       .  A
C864        H873   1.063       .  S
C865        C866   1.422       .  A
C866        H874   1.085       .  S
C875        C876   1.415       .  A
C875        C880   1.435       .  A
C876        C877   1.363       .  A
C876        H889   1.080       .  S
C877        C878   1.391       .  A
C877        H890   1.082       .  S
C878        C884   1.401       .  A
C878        C879   1.404       .  A
C879        C881   1.419       .  A
C879        C880   1.439       .  A
C880        H891   1.081       .  S
C881        C882   1.427       .  A
C881        H892   1.080       .  S
C882        C883   1.411       .  A
C882        H893   1.083       .  S
C883        C884   1.408       .  A
C883        C888   1.444       .  A
C884        C885   1.380       .  A
C885        C886   1.355       .  A
C885        H894   1.073       .  S
C886        C887   1.422       .  A
C886        H895   1.082       .  S
C887        C888   1.429       .  A
C888        H896   1.082       .  S
C897        C898   1.414       .  A
C897        C902   1.418       .  A
C898        C899   1.406       .  A
C898        H911   1.082       .  S
C899        C900   1.412       .  A
C899        H912   1.079       .  S
C900        C906   1.423       .  A
C900        C901   1.406       .  A
C901        C903   1.403       .  A
C901        C902   1.390       .  A
C902        H913   1.052       .  S
C903        C904   1.385       .  A
C903        H914   1.084       .  S
C904        C905   1.396       .  A
C904        H915   1.084       .  S
C905        C906   1.416       .  A
C905        C910   1.398       .  A
C906        C907   1.402       .  A
C907        C908   1.398       .  A
C907        H916   1.080       .  S
C908        C909   1.423       .  A
C908        H917   1.065       .  S
C909        C910   1.412       .  A
C910        H918   1.082       .  S
C919        C920   1.415       .  A
C919        C924   1.394       .  A
C920        C921   1.397       .  A
C920        H933   1.083       .  S
C921        C922   1.412       .  A
C921        H934   1.079       .  S
C922        C928   1.421       .  A
C922        C923   1.424       .  A
C923        C925   1.399       .  A
C923        C924   1.407       .  A
C924        H935   1.085       .  S
C925        C926   1.389       .  A
C925        H936   1.084       .  S
C926        C927   1.399       .  A
C926        H937   1.084       .  S
C927        C928   1.416       .  A
C927        C932   1.398       .  A
C928        C929   1.414       .  A
C929        C930   1.402       .  A
C929        H938   1.079       .  S
C930        C931   1.395       .  A
C930        H939   1.082       .  S
C931        C932   1.417       .  A
C932        H940   1.083       .  S
C941        C942   1.417       .  A
C941        C946   1.416       .  A
C942        C943   1.407       .  A
C942        H955   1.083       .  S
C943        C944   1.417       .  A
C943        H956   1.078       .  S
C944        C950   1.434       .  A
C944        C945   1.414       .  A
C945        C947   1.402       .  A
C945        C946   1.403       .  A
C946        H957   1.064       .  S
C947        C948   1.389       .  A
C947        H958   1.083       .  S
C948        C949   1.398       .  A
C948        H959   1.084       .  S
C949        C950   1.416       .  A
C949        C954   1.409       .  A
C950        C951   1.402       .  A
C951        C952   1.401       .  A
C951        H960   1.079       .  S
C952        C953   1.424       .  A
C952        H961   1.058       .  S
C953        C954   1.420       .  A
C954        H962   1.080       .  S
C963        C964   1.419       .  A
C963        C968   1.385   1_556  A
C964        C965   1.392   1_556  A
C964        H977   1.083       .  S
C965        C966   1.410       .  A
C965        H978   1.078       .  S
C966        C972   1.412       .  A
C966        C967   1.422       .  A
C967        C969   1.396       .  A
C967        C968   1.394       .  A
C968        H979   1.080       .  S
C969        C970   1.386       .  A
C969        H980   1.084       .  S
C970        C971   1.399       .  A
C970        H981   1.084       .  S
C971        C972   1.416       .  A
C971        C976   1.392       .  A
C972        C973   1.413       .  A
C973        C974   1.394       .  A
C973        H982   1.078       .  S
C974        C975   1.390   1_554  A
C974        H983   1.080       .  S
C975        C976   1.413   1_556  A
C976        H984   1.083   1_554  S
C985        C986   1.402       .  A
C985        C990   1.412       .  A
C986        C987   1.422       .  A
C986        H999   1.078   1_455  S
C987        C988   1.417       .  A
C987       H1000   1.072   1_455  S
C988        C994   1.433       .  A
C988        C989   1.411       .  A
C989        C991   1.392       .  A
C989        C990   1.375       .  A
C990       H1001   1.080       .  S
C991        C992   1.373       .  A
C991       H1002   1.085       .  S
C992        C993   1.393       .  A
C992       H1003   1.081       .  S
C993        C994   1.411       .  A
C993        C998   1.379       .  A
C994        C995   1.412       .  A
C995        C996   1.419       .  A
C995       H1004   1.077   1_455  S
C996        C997   1.406       .  A
C996       H1005   1.076   1_455  S
C997        C998   1.414       .  A
C998       H1006   1.080       .  S
C1007      C1008   1.412       .  A
C1007      C1012   1.436       .  A
C1008      C1009   1.362       .  A
C1008      H1021   1.082       .  S
C1009      C1010   1.392       .  A
C1009      H1022   1.079       .  S
C1010      C1016   1.403       .  A
C1010      C1011   1.408       .  A
C1011      C1013   1.417       .  A
C1011      C1012   1.433       .  A
C1012      H1023   1.079       .  S
C1013      C1014   1.423       .  A
C1013      H1024   1.083       .  S
C1014      C1015   1.413       .  A
C1014      H1025   1.083       .  S
C1015      C1016   1.411       .  A
C1015      C1020   1.440       .  A
C1016      C1017   1.386       .  A
C1017      C1018   1.355       .  A
C1017      H1026   1.080       .  S
C1018      C1019   1.419       .  A
C1018      H1027   1.080       .  S
C1019      C1020   1.426       .  A
C1020      H1028   1.081       .  S
C1029      C1030   1.422       .  A
C1029      C1034   1.382       .  A
C1030      C1031   1.409       .  A
C1030      H1043   1.083       .  S
C1031      C1032   1.416       .  A
C1031      H1044   1.080       .  S
C1032      C1038   1.426       .  A
C1032      C1033   1.421       .  A
C1033      C1035   1.398       .  A
C1033      C1034   1.401       .  A
C1034      H1045   1.081       .  S
C1035      C1036   1.386       .  A
C1035      H1046   1.083       .  S
C1036      C1037   1.399       .  A
C1036      H1047   1.084       .  S
C1037      C1038   1.420       .  A
C1037      C1042   1.402       .  A
C1038      C1039   1.416       .  A
C1039      C1040   1.408       .  A
C1039      H1048   1.080       .  S
C1040      C1041   1.401       .  A
C1040      H1049   1.082       .  S
C1041      C1042   1.412       .  A
C1042      H1050   1.085       .  S
C1051      C1052   1.419       .  A
C1051      C1056   1.414       .  A
C1052      C1053   1.405       .  A
C1052      H1065   1.083       .  S
C1053      C1054   1.414       .  A
C1053      H1066   1.079       .  S
C1054      C1060   1.430       .  A
C1054      C1055   1.415       .  A
C1055      C1057   1.401       .  A
C1055      C1056   1.401       .  A
C1056      H1067   1.063       .  S
C1057      C1058   1.386       .  A
C1057      H1068   1.084       .  S
C1058      C1059   1.398       .  A
C1058      H1069   1.084       .  S
C1059      C1060   1.415       .  A
C1059      C1064   1.402       .  A
C1060      C1061   1.405       .  A
C1061      C1062   1.403       .  A
C1061      H1070   1.080       .  S
C1062      C1063   1.425       .  A
C1062      H1071   1.064       .  S
C1063      C1064   1.411       .  A
C1064      H1072   1.084       .  S
C1073      C1074   1.418       .  A
C1073      C1078   1.416       .  A
C1074      C1075   1.438       .  A
C1074      H1087   1.080   1_455  S
C1075      C1076   1.427       .  A
C1075      H1088   1.080   1_455  S
C1076      C1082   1.458       .  A
C1076      C1077   1.418       .  A
C1077      C1079   1.395       .  A
C1077      C1078   1.390       .  A
C1078      H1089   1.083       .  S
C1079      C1080   1.373       .  A
C1079      H1090   1.085       .  S
C1080      C1081   1.392       .  A
C1080      H1091   1.078       .  S
C1081      C1082   1.417       .  A
C1081      C1086   1.392       .  A
C1082      C1083   1.425       .  A
C1083      C1084   1.434       .  A
C1083      H1092   1.075   1_455  S
C1084      C1085   1.418       .  A
C1084      H1093   1.078   1_455  S
C1085      C1086   1.414       .  A
C1086      H1094   1.085       .  S
C1095      C1096   1.411       .  A
C1095      C1100   1.434       .  A
C1096      C1097   1.420       .  A
C1096      H1109   1.083       .  S
C1097      C1098   1.413       .  A
C1097      H1110   1.077       .  S
C1098      C1104   1.426       .  A
C1098      C1099   1.395       .  A
C1099      C1101   1.402       .  A
C1099      C1100   1.390       .  A
C1100      H1111   1.074       .  S
C1101      C1102   1.395       .  A
C1101      H1112   1.084       .  S
C1102      C1103   1.402       .  A
C1102      H1113   1.084       .  S
C1103      C1104   1.418       .  A
C1103      C1108   1.411       .  A
C1104      C1105   1.401       .  A
C1105      C1106   1.405       .  A
C1105      H1114   1.081       .  S
C1106      C1107   1.418       .  A
C1106      H1115   1.067       .  S
C1107      C1108   1.420       .  A
C1108      H1116   1.085       .  S
C1117      C1118   1.412       .  A
C1117      C1122   1.385   1_545  A
C1118      C1119   1.393       .  A
C1118      H1131   1.084       .  S
C1119      C1120   1.412   1_545  A
C1119      H1132   1.078       .  S
C1120      C1126   1.413       .  A
C1120      C1121   1.421       .  A
C1121      C1123   1.398       .  A
C1121      C1122   1.399       .  A
C1122      H1133   1.084       .  S
C1123      C1124   1.388       .  A
C1123      H1134   1.084       .  S
C1124      C1125   1.399   1_565  A
C1124      H1135   1.084       .  S
C1125      C1126   1.414   1_545  A
C1125      C1130   1.395       .  A
C1126      C1127   1.409       .  A
C1127      C1128   1.395   1_565  A
C1127      H1136   1.078       .  S
C1128      C1129   1.407       .  A
C1128      H1137   1.084       .  S
C1129      C1130   1.406       .  A
C1130      H1138   1.068       .  S
C1139      C1140   1.425       .  A
C1139      C1144   1.403       .  A
C1140      C1141   1.435       .  A
C1140      H1153   1.080       .  S
C1141      C1142   1.424       .  A
C1141      H1154   1.081       .  S
C1142      C1148   1.442       .  A
C1142      C1143   1.410       .  A
C1143      C1145   1.393       .  A
C1143      C1144   1.377       .  A
C1144      H1155   1.065       .  S
C1145      C1146   1.373       .  A
C1145      H1156   1.083       .  S
C1146      C1147   1.391       .  A
C1146      H1157   1.085       .  S
C1147      C1148   1.417       .  A
C1147      C1152   1.380       .  A
C1148      C1149   1.418       .  A
C1149      C1150   1.427       .  A
C1149      H1158   1.081       .  S
C1150      C1151   1.422       .  A
C1150      H1159   1.082       .  S
C1151      C1152   1.408       .  A
C1152      H1160   1.081       .  S
C1161      C1162   1.402       .  A
C1161      C1166   1.415       .  A
C1162      C1163   1.399       .  A
C1162      H1175   1.073       .  S
C1163      C1164   1.411       .  A
C1163      H1176   1.079       .  S
C1164      C1170   1.422       .  A
C1164      C1165   1.416       .  A
C1165      C1167   1.400       .  A
C1165      C1166   1.401       .  A
C1166      H1177   1.084       .  S
C1167      C1168   1.390       .  A
C1167      H1178   1.084       .  S
C1168      C1169   1.397       .  A
C1168      H1179   1.084       .  S
C1169      C1170   1.423       .  A
C1169      C1174   1.403       .  A
C1170      C1171   1.414       .  A
C1171      C1172   1.398       .  A
C1171      H1180   1.078       .  S
C1172      C1173   1.415       .  A
C1172      H1181   1.083       .  S
C1173      C1174   1.392       .  A
C1174      H1182   1.082       .  S
C1183      C1184   1.417       .  A
C1183      C1188   1.413       .  A
C1184      C1185   1.388       .  A
C1184      H1197   1.061       .  S
C1185      C1186   1.401       .  A
C1185      H1198   1.080       .  S
C1186      C1192   1.413       .  A
C1186      C1187   1.412       .  A
C1187      C1189   1.399       .  A
C1187      C1188   1.398       .  A
C1188      H1199   1.085       .  S
C1189      C1190   1.389       .  A
C1189      H1200   1.084       .  S
C1190      C1191   1.401       .  A
C1190      H1201   1.084       .  S
C1191      C1192   1.412       .  A
C1191      C1196   1.399       .  A
C1192      C1193   1.404       .  A
C1193      C1194   1.391       .  A
C1193      H1202   1.079       .  S
C1194      C1195   1.407       .  A
C1194      H1203   1.081       .  S
C1195      C1196   1.416       .  A
C1196      H1204   1.064       .  S
