geometry optimzed in LAMMPS
_audit_creation_date              2020-11-30 
_audit_creation_method            'lammps2cif' 
_symmetry_space_group_name_H-M    'P1' 
_symmetry_Int_Tables_number       1 
_symmetry_cell_setting            triclinic 
loop_ 
_symmetry_equiv_pos_as_xyz 
  x,y,z 
_cell_length_a                    53.87148907 
_cell_length_b                    53.56659149164239 
_cell_length_c                    53.92736561349922 
_cell_angle_alpha                 90.49287604060744 
_cell_angle_beta                  89.97688419313238 
_cell_angle_gamma                 89.99955132742325 
loop_ 
_atom_site_label 
_atom_site_type_symbol 
_atom_site_fract_x 
_atom_site_fract_y 
_atom_site_fract_z 
_atom_site_charge 
C1          C  0.77106597  0.88848887  0.16496736     0.85900
C2          C  0.78831993  0.86693129  0.15748953    -0.54300
C3          C  0.78076995  0.84394910  0.16495814     0.08900
C4          C  0.75559420  0.84425722  0.17827960     0.19800
C5          C  0.74575681  0.88123337  0.15346779    -0.55000
C6          C  0.73777824  0.85800439  0.16059943     0.09000
C7          C  0.76679697  0.88563760  0.19299336    -0.54600
C8          C  0.75934340  0.86251611  0.19992588     0.09500
H9          H  0.80624738  0.86991826  0.14873494     0.14000
H10         H  0.74908135  0.82555946  0.18422360    -0.00200
H11         H  0.73478535  0.89308118  0.14153080     0.14300
H12         H  0.77037403  0.90043615  0.20643703     0.14100
C13         C  0.75107341  0.88691835  0.34231374     0.85900
C14         C  0.73183642  0.86679636  0.34913128    -0.54300
C15         C  0.73688465  0.84341469  0.34013310     0.08900
C16         C  0.76111500  0.84205365  0.32523748     0.19800
C17         C  0.77619509  0.87663712  0.35121268    -0.55000
C18         C  0.78131399  0.85317174  0.34225846     0.09000
C19         C  0.75204334  0.88463901  0.31373651    -0.54600
C20         C  0.75730552  0.86141308  0.30499090     0.09500
H21         H  0.71417733  0.87110124  0.35779295     0.14000
H22         H  0.76549344  0.82319561  0.31771139    -0.00200
H23         H  0.78884803  0.88701792  0.36308704     0.14300
H24         H  0.74752060  0.89957573  0.30104603     0.14100
In25       In  0.65146151  0.00268554  0.34226630     1.36900
C26         C  0.65340801  0.03320067  0.30316828     0.77000
O27         O  0.63224425  0.03012230  0.36767272    -0.61400
O28         O  0.67122375  0.02777773  0.36977511    -0.52300
C29         C  0.61439643  0.96898249  0.33957428     0.69700
O30         O  0.62597175  0.97650249  0.32075084    -0.47200
C31         C  0.69048674  0.97239364  0.34846475     0.74400
O32         O  0.63412628  0.03101883  0.31627119    -0.59100
O33         O  0.67495808  0.97691352  0.36544194    -0.49100
O34         O  0.67092814  0.01915911  0.30971906    -0.55500
C35         C  0.65178914  0.03818796  0.37772692     0.84600
O36         O  0.62183061  0.97878250  0.35953147    -0.57400
O37         O  0.68588069  0.98330855  0.32835686    -0.60700
In38       In  0.86202387  0.01259859  0.13230467     1.36900
C39         C  0.82715829  0.97878259  0.14187726     0.77000
O40         O  0.87971822  0.97882847  0.11392207    -0.61400
O41         O  0.89900204  0.99662970  0.14314843    -0.52300
C42         C  0.85740327  0.04441636  0.09402234     0.69700
O43         O  0.83954877  0.03878697  0.10803650    -0.47200
C44         C  0.86653603  0.04297450  0.17186158     0.74400
O45         O  0.82795976  0.98987456  0.12129540    -0.59100
O46         O  0.88364827  0.03957307  0.15626318    -0.49100
O47         O  0.84307509  0.98626325  0.15736000    -0.55500
C48         C  0.89837257  0.97859405  0.12804300     0.84600
O49         O  0.87726419  0.03326569  0.09934526    -0.57400
O50         O  0.84685379  0.03125420  0.16682086    -0.60700
C51         C  0.67340095  0.11870992  0.24132328     0.85900
C52         C  0.67002733  0.13877897  0.26161497    -0.54300
C53         C  0.67745860  0.16216107  0.25518186     0.08900
C54         C  0.68755073  0.16375174  0.22872443     0.19800
C55         C  0.65987082  0.12899907  0.21825398    -0.55000
C56         C  0.66735201  0.15259467  0.21185831     0.09000
C57         C  0.70130455  0.12118643  0.23471875    -0.66600
C58         C  0.70846801  0.14456635  0.22798003     0.09500
H59         H  0.66319294  0.13456794  0.28006562     0.14000
H60         H  0.69371251  0.18277506  0.22340950    -0.00200
H61         H  0.64641947  0.11839923  0.20752593     0.14300
H62         H  0.71524926  0.10693701  0.23717550     0.14100
C63         C  0.85285415  0.12538085  0.23504772     0.85900
C64         C  0.86117641  0.14636772  0.21739984    -0.54300
C65         C  0.85044814  0.16903077  0.22186177     0.08900
C66         C  0.83263346  0.16907322  0.24396918     0.19800
C67         C  0.85832001  0.13561939  0.26120576    -0.55000
C68         C  0.84778058  0.15848881  0.26579219     0.09000
C69         C  0.82435969  0.12613846  0.23254029    -0.54600
C70         C  0.81364348  0.14881350  0.23698383     0.09500
H71         H  0.87218525  0.14319933  0.20082107     0.14000
H72         H  0.82444652  0.18772371  0.24765408    -0.00200
H73         H  0.86975775  0.12595856  0.27462745     0.14300
H74         H  0.81347937  0.11024599  0.22632690     0.14100
C75         C  0.89120828  0.75070086  0.34469367     0.85900
C76         C  0.89171598  0.74957415  0.31609615    -0.54300
C77         C  0.86958710  0.75419709  0.30452545     0.08900
C78         C  0.84866880  0.76007135  0.32306599     0.19800
C79         C  0.88064790  0.77663618  0.35109810    -0.55000
C80         C  0.85844167  0.78150327  0.33973105     0.09000
C81         C  0.86998221  0.73243444  0.35123663    -0.54600
C82         C  0.84803858  0.73704778  0.33960130     0.09500
H83         H  0.90815616  0.74407910  0.30580473     0.14000
H84         H  0.83035798  0.76380267  0.31473805    -0.00200
H85         H  0.88951522  0.78962958  0.36385896     0.14300
H86         H  0.87219804  0.71577797  0.36222544     0.14100
C87         C  0.89697008  0.74973064  0.16021064     0.85900
C88         C  0.89630037  0.74588410  0.18866605    -0.54300
C89         C  0.87344020  0.74095175  0.19819318     0.08900
C90         C  0.85278897  0.74084608  0.17871407     0.19800
C91         C  0.88429500  0.72612409  0.14925449    -0.55000
C92         C  0.86110178  0.72166736  0.15899630     0.09000
C93         C  0.87790227  0.77068061  0.15639789    -0.54600
C94         C  0.85506414  0.76628845  0.16619816     0.09500
H95         H  0.91157252  0.74947953  0.20115156     0.14000
H96         H  0.83407344  0.73723156  0.18659062    -0.00200
H97         H  0.89270993  0.71421288  0.13522106     0.14300
H98         H  0.88231163  0.78793354  0.14696353     0.14100
In99       In  0.00786968  0.65468794  0.34115123     1.36900
C100        C  0.03666244  0.65357492  0.30034050     0.77000
O101        O  0.97867748  0.67253101  0.36566404    -0.61400
O102        O  0.99328564  0.69397592  0.33644468    -0.52300
C103        C  0.97447571  0.61797771  0.33447003     0.69700
O104        O  0.97514104  0.63725814  0.32125355    -0.47200
C105        C  0.04183381  0.65567751  0.37752241     0.74400
O106        O  0.03763784  0.63714141  0.31687038    -0.59100
O107        O  0.03724309  0.67412388  0.36395241    -0.49100
O108        O  0.02014131  0.66977351  0.30420061    -0.55500
C109        C  0.97793973  0.69287215  0.35407196     0.84600
O110        O  0.99141032  0.61719397  0.35055091    -0.57400
O111        O  0.02874190  0.63679223  0.37255627    -0.60700
In112      In  0.00155513  0.85821486  0.13140470     1.36900
C113        C  0.03611851  0.86497270  0.16668178     0.77000
O114        O  0.98718970  0.82569658  0.15350691    -0.61400
O115        O  0.97885094  0.82620487  0.11533392    -0.52300
C116        C  0.96819040  0.89574823  0.13027145     0.69700
O117        O  0.98530001  0.89451708  0.14608870    -0.47200
C118        C  0.03189936  0.85618908  0.09199167     0.74400
O119        O  0.01499331  0.85607909  0.17163488    -0.59100
O120        O  0.02901089  0.83811427  0.10658181    -0.49100
O121        O  0.03862064  0.87132496  0.14438532    -0.55500
C122        C  0.97641161  0.81498250  0.13561316     0.84600
O123        O  0.96787346  0.87749712  0.11548930    -0.57400
O124        O  0.01850278  0.87484596  0.09718949    -0.60700
C125        C  0.12390332  0.85395072  0.22900531     0.85900
C126        C  0.12721285  0.82580526  0.22495911    -0.54300
C127        C  0.14861464  0.81619011  0.23386872     0.08900
C128        C  0.16480702  0.83552527  0.24727981     0.19800
C129        C  0.12610544  0.85753179  0.25753134    -0.55000
C130        C  0.14790493  0.84782076  0.26692600     0.09000
C131        C  0.14781770  0.86628336  0.21945502    -0.54600
C132        C  0.16923791  0.85607338  0.22812208     0.09500
H133        H  0.11298872  0.81423415  0.21639654     0.14000
H134        H  0.18226654  0.82772310  0.25500279    -0.00200
H135        H  0.11289298  0.86783543  0.26882410     0.14300
H136        H  0.14777389  0.88032362  0.20507467     0.14100
C137        C  0.12301056  0.67331424  0.24170675     0.85900
C138        C  0.12521866  0.70195757  0.23881522    -0.54300
C139        C  0.14844630  0.71002327  0.23302101     0.08900
C140        C  0.16770999  0.68924244  0.23084971     0.19800
C141        C  0.13333288  0.66252976  0.21721418    -0.55000
C142        C  0.15665952  0.67100660  0.21156849     0.09000
C143        C  0.14290014  0.66759918  0.26134230    -0.54600
C144        C  0.16619852  0.67597679  0.25596911     0.09500
H145        H  0.11051322  0.71526878  0.24252511     0.14000
H146        H  0.18644096  0.69640186  0.22607679    -0.00200
H147        H  0.12269187  0.65051253  0.20488089     0.14300
H148        H  0.13847304  0.65929232  0.27909951     0.14100
In149      In  0.50675552  0.66563495  0.13594528     1.36900
C150        C  0.47270354  0.67207659  0.17192685     0.77000
O151        O  0.52405307  0.70047815  0.15183966    -0.61400
O152        O  0.53513877  0.68934371  0.11585631    -0.52300
C153        C  0.53767374  0.62617542  0.13934338     0.69700
O154        O  0.53592389  0.64277303  0.15597687    -0.47200
C155        C  0.47515411  0.66222946  0.09752155     0.74400
O156        O  0.48705897  0.65345346  0.17156585    -0.59100
O157        O  0.49100372  0.67940851  0.09978066    -0.49100
O158        O  0.47676004  0.68724942  0.15468632    -0.55500
C159        C  0.53721932  0.70520693  0.13314564     0.84600
O160        O  0.52347742  0.62981281  0.12116384    -0.57400
O161        O  0.47612708  0.64629186  0.11459536    -0.60700
C162        C  0.38292892  0.85943690  0.24234962     0.85900
C163        C  0.37873586  0.83091533  0.24179046    -0.54300
C164        C  0.35510406  0.82361447  0.23628482     0.08900
C165        C  0.33757904  0.84550465  0.23142299     0.19800
C166        C  0.37416661  0.86849093  0.21696040    -0.55000
C167        C  0.35057245  0.86106174  0.21121330     0.09000
C168        C  0.36293678  0.86846935  0.26089556    -0.54600
C169        C  0.33931264  0.86100044  0.25538534     0.09500
H170        H  0.39258305  0.81741671  0.24749783     0.14000
H171        H  0.31832139  0.83977414  0.22683994    -0.00200
H172        H  0.38564502  0.87934392  0.20449404     0.14300
H173        H  0.36723783  0.87772697  0.27830923     0.14100
C174        C  0.38243974  0.68647438  0.23134636     0.85900
C175        C  0.37807119  0.71402195  0.23834646    -0.54300
C176        C  0.35457076  0.71948203  0.24571178     0.08900
C177        C  0.33746672  0.69680060  0.24686730     0.19800
C178        C  0.37525229  0.67238962  0.25527209    -0.55000
C179        C  0.35164470  0.67812673  0.26351635     0.09000
C180        C  0.36171843  0.67960613  0.21304159    -0.54600
C181        C  0.33830995  0.68561209  0.22052692     0.09500
H182        H  0.39204223  0.72845966  0.23604973     0.14000
H183        H  0.31852359  0.70171848  0.25342829    -0.00200
H184        H  0.38762012  0.66022260  0.26542478     0.14300
H185        H  0.36557070  0.67249894  0.19448652     0.14100
In186      In  0.49955911  0.85969119  0.33969668     1.36900
C187        C  0.52931420  0.81985230  0.34580168     0.77000
O188        O  0.48569355  0.84839492  0.30180633    -0.61400
O189        O  0.47123982  0.88139963  0.31791597    -0.52300
C190        C  0.46502632  0.85758117  0.37578354     0.69700
O191        O  0.47055256  0.83905188  0.36229436    -0.47200
C192        C  0.53429253  0.89572249  0.33899371     0.74400
O193        O  0.52821555  0.83803851  0.36067176    -0.59100
O194        O  0.52818298  0.88353300  0.31981961    -0.49100
O195        O  0.51434837  0.82160889  0.32790271    -0.55500
C196        C  0.47080611  0.86642193  0.29976445     0.84600
O197        O  0.47726258  0.87690050  0.37069258    -0.57400
O198        O  0.52210043  0.88976795  0.35792253    -0.60700
C199        C  0.61401291  0.75793098  0.33494562     0.85900
C200        C  0.61517343  0.75875920  0.30639908    -0.54300
C201        C  0.63775510  0.75337316  0.29651582     0.08900
C202        C  0.65784529  0.74848179  0.31578198     0.19800
C203        C  0.62458021  0.73199360  0.34191158    -0.55000
C204        C  0.64760453  0.72725171  0.33178244     0.09000
C205        C  0.63462926  0.77650832  0.34262473    -0.54600
C206        C  0.65728165  0.77167331  0.33242614     0.09500
H207        H  0.59978730  0.76437131  0.29471710     0.14000
H208        H  0.67634487  0.74457536  0.30747034    -0.00200
H209        H  0.61479498  0.71873075  0.35345511     0.14300
H210        H  0.63156442  0.79326411  0.35362200     0.14100
C211        C  0.62068238  0.76510125  0.15095725     0.85900
C212        C  0.61929942  0.76645659  0.17951645    -0.54300
C213        C  0.64148295  0.76950637  0.19136254     0.08900
C214        C  0.66331630  0.77250493  0.17330925     0.19800
C215        C  0.63348471  0.78956673  0.14348210    -0.55000
C216        C  0.65563989  0.79348787  0.15541284     0.09000
C217        C  0.64024223  0.74445158  0.14645787    -0.54600
C218        C  0.66247516  0.74852575  0.15776361     0.09500
H219        H  0.60248302  0.76295046  0.18993023     0.14000
H220        H  0.68156116  0.77544127  0.18240447    -0.00200
H221        H  0.62575243  0.80258301  0.13024487     0.14300
H222        H  0.63645928  0.72704620  0.13672701     0.14100
C223        C  0.74608726  0.62479102  0.15097543     0.85900
C224        C  0.72698284  0.64602802  0.14788795    -0.54300
C225        C  0.73380823  0.66833527  0.15804464     0.08900
C226        C  0.75947192  0.66792423  0.17023266     0.19800
C227        C  0.77053359  0.63521984  0.14018900    -0.55000
C228        C  0.77745999  0.65780183  0.15032635     0.09000
C229        C  0.75024901  0.62464072  0.17931205    -0.54600
C230        C  0.75756473  0.64695480  0.18921098     0.09500
H231        H  0.70869927  0.64348435  0.13982757     0.14000
H232        H  0.76512176  0.68610380  0.17856571    -0.00200
H233        H  0.78190208  0.62510330  0.12686552     0.14300
H234        H  0.74595072  0.60899004  0.19115023     0.14100
C235        C  0.75467216  0.62010936  0.33408723     0.85900
C236        C  0.77382235  0.64001470  0.34173796    -0.54300
C237        C  0.76989099  0.66315878  0.33219957     0.08900
C238        C  0.74688860  0.66457777  0.31545289     0.19800
C239        C  0.72931186  0.63142472  0.34123114    -0.55000
C240        C  0.72520864  0.65464128  0.33139219     0.09000
C241        C  0.75538574  0.62131594  0.30543583    -0.54600
C242        C  0.75166203  0.64438931  0.29555986     0.09500
H243        H  0.79025114  0.63587409  0.35258283     0.14000
H244        H  0.74380653  0.68344453  0.30777834    -0.00200
H245        H  0.71575536  0.62184957  0.35260892     0.14300
H246        H  0.75989695  0.60551402  0.29361841     0.14100
In247      In  0.85899307  0.51012526  0.34029727     1.36900
C248        C  0.81720287  0.53695291  0.34712157     0.77000
O249        O  0.89955837  0.52087236  0.34480808    -0.61400
O250        O  0.87593980  0.54625944  0.32698527    -0.52300
C251        C  0.85700270  0.47817429  0.37849473     0.69700
O252        O  0.84281778  0.47694935  0.35996531    -0.47200
C253        C  0.86036078  0.48162781  0.29908803     0.74400
O254        O  0.83547708  0.53849669  0.36176034    -0.59100
O255        O  0.87320585  0.47703019  0.31802471    -0.49100
O256        O  0.82023175  0.52109527  0.33003847    -0.55500
C257        C  0.89756106  0.54181094  0.33457659     0.84600
O258        O  0.87181050  0.49641553  0.37787034    -0.57400
O259        O  0.84830662  0.50166040  0.30074678    -0.60700
In260      In  0.64455690  0.50892495  0.13788946     1.36900
C261        C  0.63686257  0.47609672  0.17451998     0.77000
O262        O  0.62950050  0.49058222  0.10337562    -0.61400
O263        O  0.66377252  0.47742433  0.11685882    -0.52300
C264        C  0.60850109  0.54371203  0.13971371     0.69700
O265        O  0.62317012  0.53988946  0.15752869    -0.47200
C266        C  0.68446006  0.53911011  0.13306300     0.74400
O267        O  0.62112688  0.48044536  0.15786729    -0.59100
O268        O  0.66920854  0.53498660  0.11580413    -0.49100
O269        O  0.65571347  0.49000547  0.17380804    -0.55500
C270        C  0.64689171  0.47509272  0.10076144     0.84600
O271        O  0.61188286  0.52912288  0.12164199    -0.57400
O272        O  0.68006237  0.52667995  0.15231806    -0.60700
C273        C  0.65303250  0.38530276  0.22991360     0.85900
C274        C  0.64589700  0.36006974  0.21795134    -0.54300
C275        C  0.65941257  0.34025631  0.22606688     0.08900
C276        C  0.67761427  0.34693223  0.24675495     0.19800
C277        C  0.64856437  0.38051519  0.25794418    -0.55000
C278        C  0.66153178  0.36006734  0.26656817     0.09000
C279        C  0.68127716  0.38729855  0.22764213    -0.54600
C280        C  0.69419292  0.36719190  0.23561723     0.09500
H281        H  0.63247359  0.35828210  0.20304171     0.14000
H282        H  0.68777002  0.33036629  0.25370855    -0.00200
H283        H  0.63546658  0.39089432  0.26930528     0.14300
H284        H  0.69025356  0.40380736  0.22028803     0.14100
C285        C  0.83843654  0.39629110  0.23996583     0.85900
C286        C  0.84402448  0.37764059  0.26076875    -0.54300
C287        C  0.83466994  0.35436868  0.25700287     0.08900
C288        C  0.82028386  0.35141905  0.23268791     0.19800
C289        C  0.84776931  0.38346711  0.21590761    -0.55000
C290        C  0.83804022  0.36003341  0.21217144     0.09000
C291        C  0.80975176  0.39512593  0.23787179    -0.54600
C292        C  0.80054487  0.37175598  0.23406522     0.09500
H293        H  0.85408226  0.38257730  0.27754636     0.14000
H294        H  0.81243310  0.33244986  0.22962644    -0.00200
H295        H  0.85999415  0.39242911  0.20268597     0.14300
H296        H  0.79721015  0.41073268  0.24039541     0.14100
C297        C  0.89328101  0.16875008  0.73673671     0.85900
C298        C  0.87352873  0.16129293  0.75610432    -0.54300
C299        C  0.85063474  0.17138279  0.75247742     0.08900
C300        C  0.84901828  0.18764040  0.72935586     0.19800
C301        C  0.88178114  0.16122250  0.71157095    -0.55000
C302        C  0.85853553  0.17100744  0.70787691     0.09000
C303        C  0.89215837  0.19753689  0.73755906    -0.54600
C304        C  0.86925510  0.20726991  0.73339406     0.09500
H305        H  0.87740174  0.15000438  0.77224624     0.14000
H306        H  0.83033348  0.19581566  0.72621961    -0.00200
H307        H  0.89069145  0.14861727  0.69845580     0.14300
H308        H  0.90769098  0.20950556  0.74239910     0.14100
C309        C  0.88344232  0.35532355  0.74206194     0.85900
C310        C  0.86133507  0.35948550  0.72418146    -0.54300
C311        C  0.84029805  0.34663675  0.73004860     0.08900
C312        C  0.84302215  0.33050735  0.75313895     0.19800
C313        C  0.87276504  0.36172966  0.76801027    -0.55000
C314        C  0.85148876  0.34872709  0.77356211     0.09000
C315        C  0.88627237  0.32673652  0.74159245    -0.54600
C316        C  0.86536992  0.31372352  0.74733232     0.09500
H317        H  0.86228833  0.37020641  0.70726793     0.14000
H318        H  0.82579464  0.32031082  0.75800154    -0.00200
H319        H  0.88052092  0.37597531  0.78015760     0.14300
H320        H  0.90313324  0.31735216  0.73562568     0.14100
In321      In  0.99889962  0.36993444  0.64306900     1.36900
C322        C  0.96698890  0.37462010  0.68116194     0.77000
O323        O  0.97691350  0.38825971  0.61293829    -0.61400
O324        O  0.97278245  0.34930855  0.61752865    -0.52300
C325        C  0.03438043  0.40507093  0.63972036     0.69700
O326        O  0.02253038  0.40078597  0.65937464    -0.47200
C327        C  0.02978332  0.33101144  0.64589594     0.74400
O328        O  0.97874632  0.35479395  0.67643079    -0.59100
O329        O  0.01922335  0.33670543  0.62586408    -0.49100
O330        O  0.97191622  0.39225136  0.66663507    -0.55500
C331        C  0.96674757  0.36840490  0.60540334     0.84600
O332        O  0.02759258  0.39174805  0.62161400    -0.57400
O333        O  0.02329840  0.34426385  0.66423524    -0.60700
In334      In  0.00444450  0.15724952  0.83880355     1.36900
C335        C  0.97516304  0.15397899  0.79867987     0.77000
O336        O  0.98605737  0.14290865  0.87323577    -0.61400
O337        O  0.97387724  0.17769539  0.85961614    -0.52300
C338        C  0.03343941  0.11690565  0.84095439     0.69700
O339        O  0.02167525  0.12315091  0.82180410    -0.47200
C340        C  0.04092786  0.19165999  0.83786196     0.74400
O341        O  0.98997181  0.17189327  0.80232374    -0.59100
O342        O  0.02300764  0.19345166  0.85283312    -0.49100
O343        O  0.97522755  0.13809253  0.81574490    -0.55500
C344        C  0.97110762  0.16089080  0.87568497     0.84600
O345        O  0.02934792  0.13066257  0.85966177    -0.57400
O346        O  0.03905384  0.17342869  0.82316029    -0.60700
C347        C  0.11914338  0.26968626  0.65222944     0.85900
C348        C  0.13844670  0.28880217  0.64394696    -0.54300
C349        C  0.16239426  0.28283284  0.64891591     0.08900
C350        C  0.16530087  0.25670070  0.65988921     0.19800
C351        C  0.12671931  0.24558736  0.63781802    -0.55000
C352        C  0.15125619  0.23891018  0.64205087     0.09000
C353        C  0.12532366  0.26304726  0.67913713    -0.54600
C354        C  0.14939420  0.25722808  0.68318301     0.09500
H355        H  0.13310815  0.30597328  0.63484427     0.14000
H356        H  0.18473317  0.25112792  0.66387012    -0.00200
H357        H  0.11414333  0.23452939  0.62650768     0.14300
H358        H  0.11196315  0.26429719  0.69421834     0.14100
C359        C  0.12954467  0.25366922  0.82473409     0.85900
C360        C  0.15361359  0.24085522  0.83311611    -0.54300
C361        C  0.17478642  0.25051341  0.82329435     0.08900
C362        C  0.17024710  0.27327439  0.80688277     0.19800
C363        C  0.13345215  0.28133700  0.83279131    -0.55000
C364        C  0.15507313  0.29142473  0.82328936     0.09000
C365        C  0.13080592  0.25457667  0.79640145    -0.54600
C366        C  0.15213130  0.26394044  0.78699242     0.09500
H367        H  0.15367278  0.22414567  0.84440548     0.14000
H368        H  0.18760543  0.28145762  0.79936415    -0.00200
H369        H  0.12111106  0.29167194  0.84499760     0.14300
H370        H  0.11627306  0.24698736  0.78454000     0.14100
C371        C  0.73652070  0.33653144  0.86931121     0.85900
C372        C  0.74265155  0.30867724  0.86670170    -0.54300
C373        C  0.75076097  0.30166682  0.84389331     0.08900
C374        C  0.75317613  0.32309446  0.82554872     0.19800
C375        C  0.76129221  0.34950030  0.86216226    -0.55000
C376        C  0.76993260  0.34220256  0.83908213     0.09000
C377        C  0.71905441  0.34248508  0.84769079    -0.54600
C378        C  0.72727415  0.33492845  0.82500216     0.09500
H379        H  0.73998657  0.29531583  0.88153348     0.14000
H380        H  0.76010548  0.31696712  0.80706430    -0.00200
H381        H  0.77133961  0.36245725  0.87399569     0.14300
H382        H  0.70067706  0.35044789  0.85039586     0.14100
C383        C  0.75956552  0.15782669  0.86925485     0.85900
C384        C  0.76073427  0.18651052  0.86799133    -0.54300
C385        C  0.75571216  0.19617806  0.84531952     0.08900
C386        C  0.75000085  0.17649633  0.82551706     0.19800
C387        C  0.73366409  0.15078657  0.85906142    -0.55000
C388        C  0.72883349  0.16054860  0.83610182     0.09000
C389        C  0.77788594  0.14981166  0.84847479    -0.54600
C390        C  0.77310829  0.15988925  0.82574704     0.09500
H391        H  0.76598717  0.19834264  0.88352951     0.14000
H392        H  0.74582111  0.18472704  0.80716848    -0.00200
H393        H  0.72038956  0.13947998  0.86911844     0.14300
H394        H  0.79500742  0.13974768  0.85176495     0.14100
In395      In  0.64259041  0.35802502  0.99350868     1.36900
C396        C  0.67868403  0.35281086  0.95991855     0.77000
O397        O  0.65762270  0.32449562  0.01315610    -0.61400
O398        O  0.62040254  0.33499464  0.02043408    -0.52300
C399        C  0.64581744  0.39542231  0.02660720     0.69700
O400        O  0.66394791  0.38140768  0.02133107    -0.47200
C401        C  0.60599965  0.36095162  0.96007823     0.74400
O402        O  0.67496160  0.37340061  0.97085685    -0.59100
O403        O  0.61107981  0.34127026  0.97161276    -0.49100
O404        O  0.66528184  0.33523128  0.96755219    -0.55500
C405        C  0.63788621  0.32003602  0.02488291     0.84600
O406        O  0.62637354  0.39056101  0.01448954    -0.57400
O407        O  0.61919673  0.37939599  0.96635220    -0.60700
In408      In  0.85720631  0.15897730  0.98534941     1.36900
C409        C  0.81764372  0.14967681  0.95636655     0.77000
O410        O  0.87822713  0.18063578  0.01446055    -0.61400
O411        O  0.84586995  0.19716437  0.00029597    -0.52300
C412        C  0.85593250  0.12094456  0.01769144     0.69700
O413        O  0.83881164  0.13695415  0.01618094    -0.47200
C414        C  0.89334888  0.16309085  0.95106460     0.74400
O415        O  0.81850931  0.16803201  0.97117238    -0.59100
O416        O  0.87492380  0.17759972  0.95184405    -0.49100
O417        O  0.83647886  0.13579077  0.95738255    -0.55500
C418        C  0.86352507  0.19883493  0.01555035     0.84600
O419        O  0.87318675  0.12421370  0.00231272    -0.57400
O420        O  0.89344178  0.14732438  0.96823049    -0.60700
C421        C  0.84645332  0.25647290  0.10118013     0.85900
C422        C  0.81785354  0.25428442  0.10011231    -0.54300
C423        C  0.80621963  0.25804263  0.12221579     0.08900
C424        C  0.82390238  0.26336978  0.14379654     0.19800
C425        C  0.85151666  0.28226989  0.11309043    -0.55000
C426        C  0.83962877  0.28575912  0.13539735     0.09000
C427        C  0.85353034  0.23763093  0.12151108    -0.54600
C428        C  0.84171819  0.24114355  0.14354275     0.09500
H429        H  0.80746971  0.24946154  0.08350579     0.14000
H430        H  0.81424621  0.26626943  0.16181101    -0.00200
H431        H  0.86327841  0.29634369  0.10474420     0.14300
H432        H  0.86573095  0.22177257  0.11876041     0.14100
C433        C  0.65741233  0.25729293  0.10614346     0.85900
C434        C  0.68580905  0.25792190  0.10296019    -0.54300
C435        C  0.69910330  0.25151759  0.12339768     0.08900
C436        C  0.68265875  0.24419229  0.14546657     0.19800
C437        C  0.65154532  0.23065498  0.11507790    -0.55000
C438        C  0.66470385  0.22399404  0.13579885     0.09000
C439        C  0.65314096  0.27400940  0.12930403    -0.54600
C440        C  0.66610566  0.26695924  0.14974895     0.09500
H441        H  0.69477444  0.26374719  0.08597409     0.14000
H442        H  0.69308111  0.23858890  0.16229195    -0.00200
H443        H  0.63735867  0.21887270  0.10678287     0.14300
H444        H  0.64199520  0.29083619  0.12971963     0.14100
In445      In  0.65328897  0.15370282  0.48695365     1.36900
C446        C  0.65011611  0.19267283  0.45637693     0.77000
O447        O  0.68383083  0.17384793  0.50679800    -0.61400
O448        O  0.68153108  0.13486097  0.51194756    -0.52300
C449        C  0.61742597  0.15293893  0.52146673     0.69700
O450        O  0.62674760  0.17281056  0.51329480    -0.47200
C451        C  0.65428006  0.11720445  0.45251332     0.74400
O452        O  0.63123154  0.18059165  0.46314034    -0.59100
O453        O  0.67365473  0.12644269  0.46191303    -0.49100
O454        O  0.67023677  0.18471698  0.46521559    -0.55500
C455        C  0.69285860  0.15487430  0.51708596     0.84600
O456        O  0.62650923  0.13344888  0.51186513    -0.57400
O457        O  0.63454138  0.12643347  0.46113161    -0.60700
C458        C  0.84955206  0.26442227  0.37399980     0.85900
C459        C  0.82086871  0.26334243  0.37416464    -0.54300
C460        C  0.81020298  0.25788899  0.35191981     0.08900
C461        C  0.82910326  0.25347978  0.33116046     0.19800
C462        C  0.85779833  0.23901850  0.36320849    -0.55000
C463        C  0.84701584  0.23335041  0.34082773     0.09000
C464        C  0.85474178  0.28344940  0.35330384    -0.54600
C465        C  0.84422076  0.27770288  0.33090682     0.09500
H466        H  0.80947649  0.26853973  0.38995682     0.14000
H467        H  0.82022984  0.24893037  0.31315905    -0.00200
H468        H  0.87086134  0.22672812  0.37235849     0.14300
H469        H  0.86385165  0.30123065  0.35657241     0.14100
C470        C  0.66620776  0.25405294  0.37226376     0.85900
C471        C  0.69455130  0.25865680  0.37230561    -0.54300
C472        C  0.70416061  0.26507317  0.34997950     0.08900
C473        C  0.68503644  0.26637016  0.32918482     0.19800
C474        C  0.65505388  0.27814005  0.36135040    -0.55000
C475        C  0.66500940  0.28456866  0.33883656     0.09000
C476        C  0.66325912  0.23405147  0.35171723    -0.54600
C477        C  0.67287826  0.24048313  0.32920564     0.09500
H478        H  0.70683131  0.25498920  0.38776538     0.14000
H479        H  0.69355645  0.27166937  0.31125911    -0.00200
H480        H  0.64116205  0.28937657  0.37082852     0.14300
H481        H  0.65572025  0.21559130  0.35506049     0.14100
In482      In  0.86168176  0.36568853  0.48880580     1.36900
C483        C  0.82460242  0.36326182  0.52191811     0.77000
O484        O  0.84562337  0.33205146  0.46986969    -0.61400
O485        O  0.88307781  0.34080110  0.46202833    -0.52300
C486        C  0.86015249  0.40270390  0.45569271     0.69700
O487        O  0.84234715  0.38780976  0.45914125    -0.47200
C488        C  0.89804702  0.36791366  0.52250222     0.74400
O489        O  0.82834528  0.38267917  0.50939496    -0.59100
O490        O  0.89335057  0.34853124  0.50995543    -0.49100
O491        O  0.83861853  0.34531405  0.51620430    -0.55500
C492        C  0.86507694  0.32619428  0.45818646     0.84600
O493        O  0.87855023  0.39878698  0.46956158    -0.57400
O494        O  0.88484022  0.38645909  0.51692118    -0.60700
C495        C  0.76155371  0.34852945  0.60910528     0.85900
C496        C  0.75819203  0.32016884  0.61035797    -0.54300
C497        C  0.74921929  0.31166084  0.63213981     0.08900
C498        C  0.74260645  0.33233771  0.65066566     0.19800
C499        C  0.73502001  0.35876829  0.61431019    -0.55000
C500        C  0.72532216  0.35008282  0.63640874     0.09000
C501        C  0.77611896  0.35603245  0.63252684    -0.54600
C502        C  0.76654154  0.34724941  0.65406248     0.09500
H503        H  0.76431597  0.30749749  0.59571974     0.14000
H504        H  0.73485814  0.32529181  0.66838305    -0.00200
H505        H  0.72512594  0.37155426  0.60237421     0.14300
H506        H  0.79367932  0.36599647  0.63187336     0.14100
C507        C  0.75273800  0.17132528  0.60217682     0.85900
C508        C  0.75565966  0.19980463  0.60638304    -0.54300
C509        C  0.75915150  0.20669439  0.63039608     0.08900
C510        C  0.75953978  0.18501557  0.64845667     0.19800
C511        C  0.77618974  0.16003666  0.61400401    -0.55000
C512        C  0.77967003  0.16723048  0.63823877     0.09000
C513        C  0.73130995  0.16458511  0.61983351    -0.54600
C514        C  0.73457527  0.17197795  0.64388111     0.09500
H515        H  0.75319238  0.21409143  0.59256504     0.14000
H516        H  0.76261770  0.19127756  0.66790196    -0.00200
H517        H  0.78928302  0.14833519  0.60396077     0.14300
H518        H  0.71449399  0.15542523  0.61345688     0.14100
C519        C  0.61647007  0.16036726  0.73456879     0.85900
C520        C  0.63674747  0.15638511  0.71487785    -0.54300
C521        C  0.65852657  0.16835750  0.71961625     0.08900
C522        C  0.65830114  0.18381459  0.74376518     0.19800
C523        C  0.62876795  0.15293156  0.75938302    -0.55000
C524        C  0.65069062  0.16527786  0.76420727     0.09000
C525        C  0.61447858  0.18910045  0.73563648    -0.54600
C526        C  0.63593780  0.20131015  0.74071547     0.09500
H527        H  0.63377085  0.14648149  0.69753749     0.14000
H528        H  0.67595767  0.19389280  0.74745971    -0.00200
H529        H  0.62097481  0.13916399  0.77181152     0.14300
H530        H  0.59811937  0.19942796  0.73004453     0.14100
C531        C  0.61235652  0.34744962  0.73362958     0.85900
C532        C  0.63258626  0.34787562  0.75381106    -0.54300
C533        C  0.65425252  0.33656533  0.74736936     0.08900
C534        C  0.65396361  0.32507800  0.72134033     0.19800
C535        C  0.62476498  0.35839716  0.71043001    -0.55000
C536        C  0.64639362  0.34651974  0.70394527     0.09000
C537        C  0.60982342  0.31927864  0.72764649    -0.54600
C538        C  0.63160029  0.30733896  0.72213318     0.09500
H539        H  0.62967854  0.35536062  0.77234947     0.14000
H540        H  0.67170166  0.31580545  0.71622206    -0.00200
H541        H  0.61715581  0.37390275  0.70007205     0.14300
H542        H  0.59309366  0.30859236  0.73089072     0.14100
In543      In  0.50393097  0.37138381  0.84076173     1.36900
C544        C  0.53372859  0.36955799  0.80077191     0.77000
O545        O  0.52661155  0.38864198  0.87125118    -0.61400
O546        O  0.52879988  0.34953470  0.86639284    -0.52300
C547        C  0.47359409  0.41082343  0.84477857     0.69700
O548        O  0.48627276  0.40632734  0.82559663    -0.47200
C549        C  0.46834315  0.33668652  0.83826402     0.74400
O550        O  0.53289539  0.38812385  0.81528200    -0.59100
O551        O  0.48178709  0.33938395  0.85724717    -0.49100
O552        O  0.51974824  0.35191937  0.80715771    -0.55500
C553        C  0.53577733  0.36842218  0.87869193     0.84600
O554        O  0.47715233  0.39555150  0.86202180    -0.57400
O555        O  0.47370362  0.35124600  0.82082156    -0.60700
In556      In  0.50514824  0.15063960  0.63238683     1.36900
C557        C  0.53475653  0.14559618  0.67199983     0.77000
O558        O  0.52887632  0.13327593  0.60254781    -0.61400
O559        O  0.53277756  0.17198952  0.60908027    -0.52300
C560        C  0.46987060  0.11515843  0.63192340     0.69700
O561        O  0.48087206  0.12232525  0.65127005    -0.47200
C562        C  0.47425785  0.18980333  0.63449578     0.74400
O563        O  0.53303471  0.12900658  0.65531946    -0.59100
O564        O  0.48058723  0.18012620  0.61401605    -0.49100
O565        O  0.52158462  0.16458917  0.66807242    -0.55500
C566        C  0.53993047  0.15315288  0.59681903     0.84600
O567        O  0.47766368  0.12539127  0.61246937    -0.57400
O568        O  0.48498199  0.18051608  0.65298344    -0.60700
C569        C  0.38646477  0.25294196  0.64765450     0.85900
C570        C  0.36617109  0.23351006  0.64268352    -0.54300
C571        C  0.34264468  0.24124619  0.64733115     0.08900
C572        C  0.34108204  0.26853139  0.65602252     0.19800
C573        C  0.37883704  0.27537341  0.63123672    -0.55000
C574        C  0.35507577  0.28390647  0.63618779     0.09000
C575        C  0.38191121  0.26317680  0.67388653    -0.54600
C576        C  0.35808742  0.26989213  0.67869752     0.09500
H577        H  0.37031885  0.21441762  0.63704754     0.14000
H578        H  0.32190593  0.27505252  0.66005594    -0.00200
H579        H  0.39118866  0.28469079  0.61841891     0.14300
H580        H  0.39610251  0.26418949  0.68807776     0.14100
C581        C  0.38189100  0.27306060  0.81990211     0.85900
C582        C  0.35703948  0.28522645  0.82729134    -0.54300
C583        C  0.33646525  0.27386563  0.81755210     0.08900
C584        C  0.34257340  0.25061628  0.80203672     0.19800
C585        C  0.37909266  0.24574587  0.82873235    -0.55000
C586        C  0.35831525  0.23420991  0.81926129     0.09000
C587        C  0.38117640  0.27103850  0.79155145    -0.54600
C588        C  0.36041065  0.26015110  0.78220928     0.09500
H589        H  0.35601227  0.30242982  0.83805864     0.14000
H590        H  0.32599709  0.24082954  0.79455687    -0.00200
H591        H  0.39108994  0.23673964  0.84206215     0.14300
H592        H  0.39514342  0.27940557  0.77966678     0.14100
In593      In  0.15373759  0.65379136  0.48815599     1.36900
C594        C  0.15844053  0.69014777  0.52190106     0.77000
O595        O  0.13294390  0.63084302  0.51629241    -0.61400
O596        O  0.16995574  0.62096195  0.50800131    -0.52300
C597        C  0.11721153  0.65368812  0.45464649     0.69700
O598        O  0.12649091  0.67344258  0.46351786    -0.47200
C599        C  0.19369864  0.65635659  0.45877315     0.74400
O600        O  0.13783410  0.68612797  0.51140649    -0.59100
O601        O  0.18267544  0.63602188  0.46290597    -0.49100
O602        O  0.17570856  0.67612472  0.51444838    -0.55500
C603        C  0.15092883  0.61654746  0.52084152     0.84600
O604        O  0.12656860  0.63400523  0.46317860    -0.57400
O605        O  0.18379910  0.67502755  0.46909739    -0.60700
C606        C  0.25080579  0.86367782  0.37329944     0.85900
C607        C  0.26535412  0.87395049  0.35081958    -0.54300
C608        C  0.26099283  0.86176346  0.32892626     0.08900
C609        C  0.24200467  0.84056864  0.33118512     0.19800
C610        C  0.22341275  0.86482363  0.36519777    -0.55000
C611        C  0.21884751  0.85272281  0.34313385     0.09000
C612        C  0.25756417  0.83574532  0.37288179    -0.54600
C613        C  0.25315950  0.82354168  0.35109953     0.09500
H614        H  0.28056447  0.88709857  0.35212693     0.14000
H615        H  0.23824374  0.83100384  0.31322788    -0.00200
H616        H  0.20918720  0.87486931  0.37546357     0.14300
H617        H  0.26529866  0.82635028  0.38885465     0.14100
C618        C  0.25548796  0.67956823  0.37703784     0.85900
C619        C  0.23483392  0.67440861  0.35788530    -0.54300
C620        C  0.23937034  0.68327732  0.33470216     0.08900
C621        C  0.26450744  0.69647201  0.33245694     0.19800
C622        C  0.27923326  0.66867251  0.36516448    -0.55000
C623        C  0.28381942  0.67750537  0.34180372     0.09000
C624        C  0.25898354  0.70819698  0.37565941    -0.54600
C625        C  0.26357077  0.71691386  0.35247436     0.09500
H626        H  0.21774660  0.66475247  0.36247368     0.14000
H627        H  0.26842846  0.70382681  0.31365622    -0.00200
H628        H  0.29126576  0.65537010  0.37431601     0.14300
H629        H  0.25623336  0.72120244  0.39087595     0.14100
In630      In  0.35136945  0.86568236  0.48576009     1.36900
C631        C  0.36200751  0.82679767  0.51495486     0.77000
O632        O  0.36349146  0.90175130  0.50337778    -0.61400
O633        O  0.33266745  0.88383051  0.51928953    -0.52300
C634        C  0.38814927  0.86191911  0.45208675     0.69700
O635        O  0.37131813  0.84565007  0.45416286    -0.47200
C636        C  0.31151170  0.87433689  0.45699144     0.74400
O637        O  0.34347804  0.82683820  0.50057321    -0.59100
O638        O  0.33082693  0.88754893  0.45693669    -0.49100
O639        O  0.37516718  0.84614830  0.51350639    -0.55500
C640        C  0.34743873  0.90208970  0.52035685     0.84600
O641        O  0.38607282  0.87976008  0.46734610    -0.57400
O642        O  0.31236014  0.85657016  0.47221326    -0.60700
C643        C  0.17852484  0.75062635  0.61017044     0.85900
C644        C  0.17396125  0.73089517  0.63000624    -0.54300
C645        C  0.18158161  0.73720657  0.65315939     0.08900
C646        C  0.19241440  0.76366101  0.65495730     0.19800
C647        C  0.16474949  0.77411246  0.62019470    -0.55000
C648        C  0.17242013  0.78093485  0.64382604     0.09000
C649        C  0.20585996  0.75827021  0.61242586    -0.54600
C650        C  0.21329423  0.76414614  0.63573470     0.09500
H651        H  0.16538324  0.71299484  0.62578083     0.14000
H652        H  0.19868820  0.76907485  0.67388083    -0.00200
H653        H  0.15165026  0.78499446  0.60950931     0.14300
H654        H  0.21869873  0.75814306  0.59686068     0.14100
C655        C  0.35599429  0.76927194  0.60178307     0.85900
C656        C  0.36442923  0.78735261  0.62288030    -0.54300
C657        C  0.35442169  0.78226624  0.64552817     0.08900
C658        C  0.33712344  0.75976656  0.64533101     0.19800
C659        C  0.36232657  0.74293817  0.61154494    -0.55000
C660        C  0.35226591  0.73825151  0.63440217     0.09000
C661        C  0.32744082  0.77104879  0.60313836    -0.54600
C662        C  0.31771677  0.76631289  0.62586464     0.09500
H663        H  0.37543255  0.80403947  0.62023509     0.14000
H664        H  0.32930037  0.75521478  0.66379642    -0.00200
H665        H  0.37384380  0.72958655  0.60159290     0.14300
H666        H  0.31586628  0.77575677  0.58745913     0.14100
In667      In  0.15352246  0.50937068  0.63621127     1.36900
C668        C  0.19497832  0.48128523  0.63144682     0.77000
O669        O  0.16234958  0.51620855  0.67671567    -0.61400
O670        O  0.14284265  0.54436495  0.65758700    -0.52300
C671        C  0.15307914  0.54195894  0.59865322     0.69700
O672        O  0.17267919  0.53386953  0.60841277    -0.47200
C673        C  0.11478417  0.47759746  0.63760505     0.74400
O674        O  0.17551728  0.47747352  0.61903408    -0.59100
O675        O  0.12223838  0.48970756  0.65627772    -0.49100
O676        O  0.19325546  0.49959729  0.64617640    -0.55500
C677        C  0.15278746  0.53771823  0.67767107     0.84600
O678        O  0.13358969  0.53342563  0.60833247    -0.57400
O679        O  0.12734261  0.48159661  0.61837066    -0.60700
C680        C  0.26091821  0.39363413  0.81472376     0.85900
C681        C  0.25838625  0.39133597  0.78653685    -0.54300
C682        C  0.24888897  0.36939222  0.77834381     0.08900
C683        C  0.24046622  0.35201612  0.79920336     0.19800
C684        C  0.23400773  0.38971912  0.82455609    -0.55000
C685        C  0.22342756  0.36772630  0.81612791     0.09000
C686        C  0.27449023  0.36974060  0.82276177    -0.54600
C687        C  0.26360396  0.34798648  0.81511085     0.09500
H688        H  0.26561486  0.40520563  0.77381653     0.14000
H689        H  0.23185399  0.33439391  0.79239966    -0.00200
H690        H  0.22471194  0.40204199  0.83761732     0.14300
H691        H  0.29219204  0.37023657  0.83234607     0.14100
C692        C  0.25816059  0.39708556  0.63877786     0.85900
C693        C  0.25935817  0.39340260  0.66712925    -0.54300
C694        C  0.26381012  0.36965934  0.67440526     0.08900
C695        C  0.26711972  0.35120911  0.65287824     0.19800
C696        C  0.28288240  0.38648626  0.62874272    -0.55000
C697        C  0.28738908  0.36235400  0.63596558     0.09000
C698        C  0.23848124  0.37769835  0.63074099    -0.54600
C699        C  0.24286417  0.35378506  0.63830848     0.09500
H700        H  0.25426293  0.40745963  0.68079081     0.14000
H701        H  0.27118593  0.33206825  0.65939558    -0.00200
H702        H  0.29521143  0.39674529  0.61660208     0.14300
H703        H  0.22116700  0.38287754  0.62193362     0.14100
In704      In  0.35825234  0.51727433  0.83918963     1.36900
C705        C  0.36478124  0.54871507  0.80115813     0.77000
O706        O  0.34272635  0.48416922  0.81937884    -0.61400
O707        O  0.32103301  0.49887837  0.84859732    -0.52300
C708        C  0.39816519  0.48800251  0.84446887     0.69700
O709        O  0.39529420  0.50277276  0.82664283    -0.47200
C710        C  0.35217169  0.54817145  0.87802502     0.74400
O711        O  0.34640465  0.53419087  0.80273933    -0.59100
O712        O  0.33729738  0.54771407  0.85996089    -0.49100
O713        O  0.37964979  0.54699975  0.81905518    -0.55500
C714        C  0.32345450  0.48194562  0.83238076     0.84600
O715        O  0.38074646  0.48874123  0.86013416    -0.57400
O716        O  0.36934459  0.53228742  0.87633023    -0.60700
C717        C  0.35179301  0.63269001  0.74066648     0.85900
C718        C  0.32330361  0.63212304  0.74273281    -0.54300
C719        C  0.31163029  0.65419794  0.73820823     0.08900
C720        C  0.32969678  0.67530934  0.73158844     0.19800
C721        C  0.35719911  0.64282253  0.71465582    -0.55000
C722        C  0.34572378  0.66510991  0.70993733     0.09000
C723        C  0.35885610  0.65430489  0.75850782    -0.54600
C724        C  0.34710143  0.67638038  0.75403751     0.09500
H725        H  0.31310963  0.61580837  0.74881888     0.14000
H726        H  0.32060534  0.69347642  0.72783391    -0.00200
H727        H  0.36963948  0.63373299  0.70156306     0.14300
H728        H  0.36966604  0.65193519  0.77527800     0.14100
C729        C  0.17043645  0.62078851  0.74327963     0.85900
C730        C  0.19901385  0.62378939  0.74493743    -0.54300
C731        C  0.20677225  0.64707022  0.75157420     0.08900
C732        C  0.18579683  0.66561504  0.75589031     0.19800
C733        C  0.16083810  0.62975725  0.76888119    -0.55000
C734        C  0.16915396  0.65319202  0.77543222     0.09000
C735        C  0.16301665  0.64164497  0.72523451    -0.54600
C736        C  0.17109905  0.66499764  0.73158011     0.09500
H737        H  0.21245206  0.60965750  0.73970798     0.14000
H738        H  0.19278905  0.68435997  0.76132848    -0.00200
H739        H  0.14952076  0.61835522  0.78098790     0.14300
H740        H  0.15464433  0.63784281  0.70727750     0.14100
C741        C  0.16813818  0.76334535  0.87616866     0.85900
C742        C  0.16368675  0.77687836  0.85128714    -0.54300
C743        C  0.17655540  0.76736342  0.83147555     0.08900
C744        C  0.19281890  0.74494943  0.83827702     0.19800
C745        C  0.16199807  0.73577810  0.87037743    -0.55000
C746        C  0.17489639  0.72620526  0.85048256     0.09000
C747        C  0.19648782  0.76424877  0.87883382    -0.54600
C748        C  0.20962657  0.75517127  0.85915672     0.09500
H749        H  0.15327580  0.79402551  0.84947971     0.14000
H750        H  0.20262444  0.73685067  0.82206976    -0.00200
H751        H  0.14796166  0.72525151  0.88024743     0.14300
H752        H  0.20551256  0.77294351  0.89468888     0.14100
C753        C  0.35428411  0.76144499  0.87764919     0.85900
C754        C  0.35535324  0.74105964  0.85725566    -0.54300
C755        C  0.34451983  0.74733003  0.83532513     0.08900
C756        C  0.33308584  0.77349679  0.83561889     0.19800
C757        C  0.36539723  0.78496835  0.86553164    -0.55000
C758        C  0.35417276  0.79124018  0.84357094     0.09000
C759        C  0.32616865  0.76689926  0.87950877    -0.54600
C760        C  0.31519262  0.77300455  0.85766685     0.09500
H761        H  0.36336364  0.72277287  0.86006633     0.14000
H762        H  0.32393143  0.77866407  0.81792832    -0.00200
H763        H  0.38059523  0.79561166  0.87353657     0.14300
H764        H  0.31500287  0.76322119  0.89582751     0.14100
In765      In  0.35980019  0.65950798  0.98998906     1.36900
C766        C  0.36841767  0.69940569  0.96121850     0.77000
O767        O  0.37488205  0.62642544  0.96894778    -0.61400
O768        O  0.33761205  0.63663026  0.96248899    -0.52300
C769        C  0.39665021  0.65958657  0.02347317     0.69700
O770        O  0.38654930  0.67932581  0.01581698    -0.47200
C771        C  0.31813888  0.65775251  0.01747067     0.74400
O772        O  0.37952570  0.67884992  0.95831950    -0.59100
O773        O  0.33757222  0.64591488  0.02292662    -0.49100
O774        O  0.35371583  0.69967788  0.97942507    -0.55500
C775        C  0.35510514  0.62192200  0.95727230     0.84600
O776        O  0.38788412  0.63987992  0.01398030    -0.57400
O777        O  0.31998942  0.66990033  0.99768515    -0.60700
In778      In  0.14996816  0.87053147  0.98888368     1.36900
C779        C  0.14801396  0.83140269  0.95713442     0.77000
O780        O  0.13097801  0.90034827  0.96683934    -0.61400
O781        O  0.16995161  0.89728585  0.96368185    -0.52300
C782        C  0.11147009  0.86437023  0.01981573     0.69700
O783        O  0.12652842  0.84696172  0.01482665    -0.47200
C784        C  0.18714134  0.88102373  0.02055482     0.74400
O785        O  0.13299621  0.84938411  0.95697307    -0.59100
O786        O  0.18900748  0.86456322  0.00374707    -0.49100
O787        O  0.16394480  0.83299757  0.97426962    -0.55500
C788        C  0.15054839  0.90863183  0.95716366     0.84600
O789        O  0.11665266  0.88461704  0.00936612    -0.57400
O790        O  0.16655674  0.89213040  0.02068211    -0.60700
C791        C  0.25367378  0.67961268  0.09822417     0.85900
C792        C  0.27352991  0.67790250  0.11877357    -0.54300
C793        C  0.26669758  0.68819715  0.14093469     0.08900
C794        C  0.24087074  0.69993854  0.14071184     0.19800
C795        C  0.23013306  0.66808038  0.10965286    -0.55000
C796        C  0.22343612  0.67895306  0.13177398     0.09000
C797        C  0.24836107  0.70796531  0.09718965    -0.54600
C798        C  0.24196822  0.71852401  0.11933078     0.09500
H799        H  0.29184984  0.66994591  0.11593406     0.14000
H800        H  0.23546119  0.70861126  0.15871774    -0.00200
H801        H  0.21974539  0.65294632  0.10107346     0.14300
H802        H  0.25222606  0.71964110  0.08133553     0.14100
C803        C  0.24710391  0.86741641  0.10492746     0.85900
C804        C  0.23057447  0.87025794  0.12834267    -0.54300
C805        C  0.23852637  0.85697403  0.14832021     0.08900
C806        C  0.26229367  0.84213017  0.14330442     0.19800
C807        C  0.27325733  0.87477349  0.11375316    -0.55000
C808        C  0.28100508  0.86159883  0.13394134     0.09000
C809        C  0.24805152  0.83895804  0.10090446    -0.54600
C810        C  0.25569616  0.82550422  0.12082563     0.09500
H811        H  0.21338154  0.88066475  0.12926937     0.14000
H812        H  0.26921016  0.83226971  0.15984027    -0.00200
H813        H  0.28407025  0.88971012  0.10560710     0.14300
H814        H  0.24164026  0.83004029  0.08392990     0.14100
C815        C  0.18181797  0.88669496  0.75003821     0.85900
C816        C  0.21011189  0.88535133  0.74722389    -0.54300
C817        C  0.21896995  0.86303286  0.73931153     0.08900
C818        C  0.19861766  0.84391459  0.73310703     0.19800
C819        C  0.17194132  0.87981621  0.72372293    -0.55000
C820        C  0.18089135  0.85717650  0.71501178     0.09000
C821        C  0.17453490  0.86389056  0.76564910    -0.54600
C822        C  0.18323603  0.84160628  0.75688342     0.09500
H823        H  0.22243087  0.90061997  0.75236370     0.14000
H824        H  0.20590395  0.82577042  0.72610232    -0.00200
H825        H  0.15850307  0.89074930  0.71353697     0.14300
H826        H  0.16405471  0.86544742  0.78281318     0.14100
C827        C  0.36072734  0.89802218  0.73733350     0.85900
C828        C  0.33232781  0.89446614  0.73621108    -0.54300
C829        C  0.32435731  0.87123393  0.74220470     0.08900
C830        C  0.34532982  0.85311452  0.74830639     0.19800
C831        C  0.36841111  0.88924502  0.76361415    -0.55000
C832        C  0.36015411  0.86559396  0.76911607     0.09000
C833        C  0.37000770  0.87718051  0.71960343    -0.54600
C834        C  0.36226985  0.85374500  0.72545209     0.09500
H835        H  0.31946384  0.90871737  0.73008455     0.14000
H836        H  0.33864728  0.83409147  0.75300557    -0.00200
H837        H  0.37931608  0.90049317  0.77640790     0.14300
H838        H  0.37798618  0.88095584  0.70159238     0.14100
In839      In  0.15246075  0.01392425  0.84172664     1.36900
C840        C  0.19006664  0.04684519  0.84245216     0.77000
O841        O  0.17434589  0.98287650  0.82531247    -0.61400
O842        O  0.14124261  0.99212231  0.80654208    -0.52300
C843        C  0.15004563  0.98430496  0.88119347     0.69700
O844        O  0.16740046  0.99977188  0.87800648    -0.47200
C845        C  0.11194665  0.04295205  0.83940921     0.74400
O846        O  0.17512622  0.04427016  0.86021407    -0.59100
O847        O  0.12673291  0.04008122  0.82145209    -0.49100
O848        O  0.18559680  0.03268562  0.82422346    -0.55500
C849        C  0.15981139  0.97776513  0.80770173     0.84600
O850        O  0.13376601  0.98444272  0.86438630    -0.57400
O851        O  0.11772646  0.03054133  0.85825316    -0.60700
In852      In  0.35022735  0.01136547  0.63628257     1.36900
C853        C  0.30807552  0.03849282  0.63412160     0.77000
O854        O  0.37306744  0.98137934  0.65461867    -0.61400
O855        O  0.34556349  0.99911182  0.67623396    -0.52300
C856        C  0.34589420  0.97680119  0.59999562     0.69700
O857        O  0.33049540  0.97857577  0.61757785    -0.47200
C858        C  0.38692492  0.04568139  0.63555457     0.74400
O859        O  0.32402156  0.03839212  0.61701655    -0.59100
O860        O  0.37350249  0.04194404  0.65429260    -0.49100
O861        O  0.31338649  0.02405707  0.65162517    -0.55500
C862        C  0.36232169  0.98271445  0.67534364     0.84600
O863        O  0.36295705  0.99284751  0.60112805    -0.57400
O864        O  0.38127214  0.03211746  0.61726005    -0.60700
C865        C  0.25516582  0.12956452  0.82565903     0.85900
C866        C  0.25233268  0.13118379  0.79738453    -0.54300
C867        C  0.25975180  0.15314369  0.78719180     0.08900
C868        C  0.27025278  0.17159676  0.80648193     0.19800
C869        C  0.28263897  0.13549952  0.83102713    -0.55000
C870        C  0.29039412  0.15751907  0.82093142     0.09000
C871        C  0.24076766  0.15298555  0.83466332    -0.54600
C872        C  0.24899960  0.17498959  0.82507330     0.09500
H873        H  0.24342903  0.11664326  0.78642198     0.14000
H874        H  0.27683659  0.18953330  0.79869727    -0.00200
H875        H  0.29430165  0.12420721  0.84290783     0.14300
H876        H  0.22322142  0.15201221  0.84437213     0.14100
C877        C  0.24774997  0.12440866  0.64856271     0.85900
C878        C  0.24504532  0.12884603  0.67684706    -0.54300
C879        C  0.24135346  0.15309457  0.68368204     0.08900
C880        C  0.24066492  0.17110676  0.66189832     0.19800
C881        C  0.22407011  0.13611347  0.63740012    -0.55000
C882        C  0.22047302  0.16060505  0.64440462     0.09000
C883        C  0.26886449  0.14237780  0.64139007    -0.54600
C884        C  0.26535451  0.16651155  0.64859810     0.09500
H885        H  0.24777511  0.11485876  0.69094010     0.14000
H886        H  0.23776623  0.19085437  0.66769870    -0.00200
H887        H  0.21137934  0.12604672  0.62530876     0.14300
H888        H  0.28577117  0.13628482  0.63222810     0.14100
C889        C  0.22988341  0.15070425  0.75205268    -0.26900
C890        C  0.25277145  0.15946581  0.76123697    -0.15000
C891        C  0.26889067  0.17205434  0.74498385     0.35700
C892        C  0.26314130  0.17299883  0.71952714    -0.26300
C893        C  0.24215145  0.16057168  0.71011936    -0.15600
C894        C  0.22484574  0.15048706  0.72665540     0.36800
N895        N  0.20272576  0.13878405  0.71752010    -0.89800
H896        H  0.21642541  0.14243082  0.76445170     0.17900
H897        H  0.27612431  0.18166395  0.70694907     0.17900
N898        N  0.29178064  0.18234925  0.75381360    -0.88800
H899        H  0.20273105  0.12020980  0.72334180     0.35200
H900        H  0.18750430  0.14775386  0.72567225     0.40300
H901        H  0.29199568  0.20135073  0.74952433     0.40000
H902        H  0.30629568  0.17368725  0.74417499     0.34900
C903        C  0.25467435  0.07797507  0.65834268    -0.26900
C904        C  0.25424789  0.09730984  0.64075140    -0.15000
C905        C  0.26531722  0.09225447  0.61737506     0.35700
C906        C  0.28164874  0.07174186  0.61473079    -0.26300
C907        C  0.28610530  0.05549044  0.63459254    -0.15600
C908        C  0.27090215  0.05761783  0.65579725     0.36800
N909        N  0.27283196  0.04001199  0.67555283    -0.89800
H910        H  0.24362900  0.07904579  0.67501009     0.17900
H911        H  0.29201853  0.06938583  0.59765751     0.17900
N912        N  0.26158924  0.10912913  0.59714047    -0.88800
H913        H  0.25530112  0.03220691  0.67845692     0.35200
H914        H  0.27794666  0.04970614  0.69167994     0.40300
H915        H  0.24276889  0.10842095  0.59242963     0.40000
H916        H  0.27140744  0.10310320  0.58148557     0.34900
C917        C  0.22972746  0.06309492  0.82482159    -0.26900
C918        C  0.21071524  0.06526492  0.84252035    -0.15000
C919        C  0.21143260  0.08548445  0.85938378     0.35700
C920        C  0.22888661  0.10462428  0.85613238    -0.26300
C921        C  0.24525368  0.10460327  0.83571416    -0.15600
C922        C  0.24767654  0.08188854  0.82199498     0.36800
N923        N  0.26724514  0.07772521  0.80426326    -0.89800
H924        H  0.23048956  0.04681788  0.81276956     0.17900
H925        H  0.22846993  0.12023640  0.86897646     0.17900
N926        N  0.19364335  0.08748352  0.87904219    -0.88800
H927        H  0.27654921  0.06145580  0.80941853     0.35200
H928        H  0.28058340  0.09180929  0.80541277     0.40300
H929        H  0.18378594  0.10412413  0.87679294     0.40000
H930        H  0.20331787  0.08864567  0.89581964     0.34900
C931        C  0.38743415  0.92771194  0.71164632    -0.26900
C932        C  0.36848772  0.92465688  0.72945559    -0.15000
C933        C  0.35316060  0.94576007  0.73440494     0.35700
C934        C  0.35234562  0.96540498  0.71727093    -0.26300
C935        C  0.36775719  0.96544724  0.69623741    -0.15600
C936        C  0.38705870  0.94765997  0.69480890     0.36800
N937        N  0.40554287  0.94919762  0.67564855    -0.89800
H938        H  0.40166714  0.91359685  0.70961110     0.17900
H939        H  0.33880354  0.98014302  0.71993042     0.17900
N940        N  0.33794938  0.94765155  0.75625020    -0.88800
H941        H  0.41813065  0.93444078  0.67691270     0.35200
H942        H  0.41569245  0.96558985  0.67878301     0.40300
H943        H  0.34091848  0.93264180  0.76810088     0.40000
H944        H  0.31932225  0.94747350  0.75083447     0.34900
C945        C  0.15849108  0.92926206  0.75425266    -0.26900
C946        C  0.17479134  0.91105209  0.76378133    -0.15000
C947        C  0.18563789  0.91567133  0.78739702     0.35700
C948        C  0.18056658  0.93759905  0.80043980    -0.26300
C949        C  0.16433121  0.95564208  0.79131312    -0.15600
C950        C  0.15304317  0.95149865  0.76789396     0.36800
N951        N  0.13628980  0.96974973  0.75801301    -0.89800
H952        H  0.14997095  0.92631446  0.73632732     0.17900
H953        H  0.18929905  0.94017442  0.81838992     0.17900
N954        N  0.20215648  0.89794629  0.79844784    -0.88800
H955        H  0.12945658  0.96383980  0.74080495     0.35200
H956        H  0.14648787  0.98602853  0.75482337     0.40300
H957        H  0.19477779  0.89266895  0.81555229     0.40000
H958        H  0.21919475  0.90675170  0.80168334     0.34900
C959        C  0.25926061  0.86243798  0.71759753    -0.26900
C960        C  0.24600793  0.85825082  0.73951134    -0.15000
C961        C  0.25923510  0.85544305  0.76212307     0.35700
C962        C  0.28517654  0.85764478  0.76214348    -0.26300
C963        C  0.29797277  0.86399990  0.74055138    -0.15600
C964        C  0.28503836  0.86570323  0.71798926     0.36800
N965        N  0.29797971  0.87158214  0.69557218    -0.89800
H966        H  0.24950256  0.86511163  0.70036872     0.17900
H967        H  0.29519434  0.85611797  0.77947155     0.17900
N968        N  0.24705129  0.85150173  0.78550188    -0.88800
H969        H  0.29047460  0.88804052  0.68851606     0.35200
H970        H  0.29463069  0.85726362  0.68269318     0.40300
H971        H  0.22783535  0.85039605  0.78354114     0.40000
H972        H  0.25059516  0.86706848  0.79676391     0.34900
C973        C  0.26324847  0.75628981  0.13579174    -0.26900
C974        C  0.24319013  0.74587653  0.12276046    -0.15000
C975        C  0.22689555  0.76156985  0.10996885     0.35700
C976        C  0.23111944  0.78733965  0.10992969    -0.26300
C977        C  0.25201148  0.79789033  0.12181195    -0.15600
C978        C  0.26809177  0.78205347  0.13502019     0.36800
N979        N  0.28980740  0.79179148  0.14691743    -0.89800
H980        H  0.27593896  0.74424605  0.14558723     0.17900
H981        H  0.21781129  0.79908501  0.10053799     0.17900
N982        N  0.20609836  0.75132882  0.09685056    -0.88800
H983        H  0.30531279  0.78273512  0.13939294     0.35200
H984        H  0.28877604  0.78729231  0.16569838     0.40300
H985        H  0.20761698  0.75641911  0.07824500     0.40000
H986        H  0.18995480  0.75947113  0.10404700     0.34900
C987        C  0.12807680  0.93593439  0.92753115    -0.26900
C988        C  0.15043020  0.92949360  0.93925558    -0.15000
C989        C  0.17221100  0.94275701  0.93326076     0.35700
C990        C  0.17149710  0.96128392  0.91498561    -0.26300
C991        C  0.14940632  0.96674809  0.90230415    -0.15600
C992        C  0.12739530  0.95431528  0.90914856     0.36800
N993        N  0.10426155  0.96028860  0.89753604    -0.89800
H994        H  0.11106510  0.92624552  0.93219274     0.17900
H995        H  0.18851903  0.97089175  0.91020464     0.17900
N996        N  0.19510837  0.93753824  0.94566583    -0.88800
H997        H  0.09184249  0.96607960  0.91133515     0.35200
H998        H  0.09722042  0.94400556  0.88934727     0.40300
H999        H  0.20122624  0.95399557  0.95425215     0.40000
H1000       H  0.20823085  0.93236283  0.93229134     0.34900
C1001       C  0.23010307  0.87444030  0.03720882    -0.26900
C1002       C  0.20661789  0.88561030  0.03964457    -0.15000
C1003       C  0.20125149  0.89886454  0.06174158     0.35700
C1004       C  0.21698894  0.89650231  0.08230163    -0.26300
C1005       C  0.23770811  0.88050491  0.08145295    -0.15600
C1006       C  0.24605695  0.87257454  0.05777690     0.36800
N1007       N  0.26980038  0.86081082  0.05502308    -0.89800
H1008       H  0.23549061  0.86580023  0.01978310     0.17900
H1009       H  0.21184436  0.90611182  0.09921209     0.17900
N1010       N  0.17909566  0.91348640  0.06402122    -0.88800
H1011       H  0.28009975  0.87112363  0.04225991     0.35200
H1012       H  0.26710242  0.84295895  0.04751407     0.40300
H1013       H  0.18422174  0.93174432  0.06874351     0.40000
H1014       H  0.16854962  0.90631234  0.07859974     0.34900
C1015       C  0.29429223  0.64189407  0.05386317    -0.26900
C1016       C  0.29588737  0.65853235  0.03388994    -0.15000
C1017       C  0.27722618  0.67701405  0.03163727     0.35700
C1018       C  0.26061425  0.68112785  0.05120664    -0.26300
C1019       C  0.26267897  0.66793238  0.07360662    -0.15600
C1020       C  0.27734665  0.64603686  0.07333929     0.36800
N1021       N  0.27601082  0.62870706  0.09338619    -0.89800
H1022       H  0.30710587  0.62636022  0.05508311     0.17900
H1023       H  0.24708058  0.69586828  0.04920652     0.17900
N1024       N  0.27537703  0.69287830  0.01047189    -0.88800
H1025       H  0.29376638  0.62682686  0.10098301     0.35200
H1026       H  0.27084803  0.61135393  0.08603663     0.40300
H1027       H  0.27347193  0.68170550  0.99459833     0.40000
H1028       H  0.29150345  0.70362249  0.00914106     0.34900
C1029       C  0.34824786  0.83569612  0.83139703    -0.26900
C1030       C  0.36103812  0.81307409  0.82815841    -0.15000
C1031       C  0.37683474  0.81005767  0.80755995     0.35700
C1032       C  0.37862334  0.82925947  0.78995697    -0.26300
C1033       C  0.36465171  0.85134456  0.79226937    -0.15600
C1034       C  0.34969022  0.85481130  0.81366588     0.36800
N1035       N  0.33468058  0.87672427  0.81738631    -0.89800
H1036       H  0.33576996  0.83789778  0.84703604     0.17900
H1037       H  0.38947380  0.82617229  0.77327374     0.17900
N1038       N  0.38965433  0.78680900  0.80373818    -0.88800
H1039       H  0.31606350  0.87121187  0.81696892     0.35200
H1040       H  0.33709746  0.88960300  0.80320491     0.40300
H1041       H  0.40225182  0.78469726  0.81833317     0.40000
H1042       H  0.40006939  0.78726812  0.78740940     0.34900
C1043       C  0.35375477  0.75808752  0.92496317    -0.26900
C1044       C  0.36606352  0.75290211  0.90239400    -0.15000
C1045       C  0.38564596  0.73507709  0.90316812     0.35700
C1046       C  0.38712393  0.71849637  0.92320587    -0.26300
C1047       C  0.37098790  0.72062025  0.94359630    -0.15600
C1048       C  0.35594347  0.74215272  0.94549795     0.36800
N1049       N  0.34193721  0.74712166  0.96768960    -0.89800
H1050       H  0.34108206  0.77372052  0.92616494     0.17900
H1051       H  0.40049210  0.70339481  0.92240257     0.17900
N1052       N  0.40434924  0.73343666  0.88419891    -0.88800
H1053       H  0.33137712  0.76336493  0.96583702     0.35200
H1054       H  0.35467203  0.75062038  0.98194028     0.40300
H1055       H  0.40226998  0.74748406  0.87111391     0.40000
H1056       H  0.40273316  0.71610992  0.87520512     0.34900
C1057       C  0.15576791  0.79265890  0.79895031    -0.26900
C1058       C  0.17745835  0.78085648  0.80736295    -0.15000
C1059       C  0.20003447  0.78550768  0.79480470     0.35700
C1060       C  0.20095163  0.80381332  0.77639518    -0.26300
C1061       C  0.17995692  0.81804242  0.77072049    -0.15600
C1062       C  0.15679968  0.81134446  0.78088127     0.36800
N1063       N  0.13459253  0.82413176  0.77346598    -0.89800
H1064       H  0.13813825  0.78833751  0.80758680     0.17900
H1065       H  0.21867244  0.80826365  0.76802020     0.17900
N1066       N  0.22250024  0.77315245  0.80167652    -0.88800
H1067       H  0.11921646  0.81724117  0.78299294     0.35200
H1068       H  0.13161914  0.81998634  0.75471244     0.40300
H1069       H  0.23543293  0.78668581  0.80710627     0.40000
H1070       H  0.22947306  0.76390151  0.78600278     0.34900
C1071       C  0.13831803  0.79497912  0.89666021    -0.26900
C1072       C  0.15560790  0.77541133  0.89921040    -0.15000
C1073       C  0.16489322  0.77087936  0.92339923     0.35700
C1074       C  0.16152753  0.78897717  0.94232787    -0.26300
C1075       C  0.14764947  0.81078084  0.93823241    -0.15600
C1076       C  0.13462510  0.81278644  0.91548702     0.36800
N1077       N  0.11842266  0.83328573  0.91026731    -0.89800
H1078       H  0.12820698  0.79744858  0.87958240     0.17900
H1079       H  0.17047141  0.78639251  0.96011367     0.17900
N1080       N  0.17919844  0.74877236  0.92812432    -0.88800
H1081       H  0.12858805  0.84991626  0.91115731     0.35200
H1082       H  0.10425843  0.83368435  0.92348411     0.40300
H1083       H  0.16744360  0.73348573  0.92579838     0.40000
H1084       H  0.18522028  0.74852520  0.94661728     0.34900
C1085       C  0.27849745  0.74936832  0.84333196    -0.26900
C1086       C  0.28809522  0.77078364  0.85491381    -0.15000
C1087       C  0.27202394  0.78766157  0.86680715     0.35700
C1088       C  0.24647737  0.78266706  0.86697643    -0.26300
C1089       C  0.23677054  0.76034889  0.85671666    -0.15600
C1090       C  0.25312090  0.74374709  0.84454693     0.36800
N1091       N  0.24441431  0.72062546  0.83436580    -0.89800
H1092       H  0.29096498  0.73610647  0.83457902     0.17900
H1093       H  0.23420561  0.79627050  0.87545415     0.17900
N1094       N  0.28182656  0.80940782  0.87918009    -0.88800
H1095       H  0.25411829  0.70614420  0.84291247     0.35200
H1096       H  0.24881041  0.72021532  0.81548339     0.40300
H1097       H  0.28980711  0.82077453  0.86572391     0.40000
H1098       H  0.26752136  0.81977198  0.88746562     0.34900
C1099       C  0.18580663  0.66520473  0.81668219    -0.26900
C1100       C  0.16581185  0.66538290  0.80002851    -0.15000
C1101       C  0.14612572  0.68209465  0.80424139     0.35700
C1102       C  0.14805139  0.70027254  0.82316749    -0.26300
C1103       C  0.16937000  0.70187399  0.83809452    -0.15600
C1104       C  0.18761824  0.68294735  0.83595201     0.36800
N1105       N  0.20867053  0.68183185  0.85225700    -0.89800
H1106       H  0.20090347  0.65216277  0.81376882     0.17900
H1107       H  0.13382378  0.71450302  0.82475270     0.17900
N1108       N  0.12485817  0.68164883  0.78835679    -0.88800
H1109       H  0.20800901  0.66465331  0.86129301     0.35200
H1110       H  0.20747052  0.69545795  0.86617647     0.40300
H1111       H  0.10924125  0.67845735  0.79940673     0.40000
H1112       H  0.12291809  0.69932369  0.78056329     0.34900
C1113       C  0.33787780  0.68753832  0.79773532    -0.26900
C1114       C  0.34466577  0.69547200  0.77395411    -0.15000
C1115       C  0.34864869  0.72104127  0.76977610     0.35700
C1116       C  0.34764011  0.73798600  0.78985313    -0.26300
C1117       C  0.34266026  0.72966672  0.81400896    -0.15600
C1118       C  0.33658609  0.70434267  0.81764060     0.36800
N1119       N  0.32852477  0.69566305  0.84138186    -0.89800
H1120       H  0.33347148  0.66807455  0.80090579     0.17900
H1121       H  0.35153051  0.75751919  0.78663747     0.17900
N1122       N  0.35442298  0.72972640  0.74541482    -0.88800
H1123       H  0.34050662  0.68140009  0.84692540     0.35200
H1124       H  0.31077671  0.68802079  0.83932420     0.40300
H1125       H  0.37160649  0.73875239  0.74613130     0.40000
H1126       H  0.34101787  0.74290463  0.74046599     0.34900
C1127       C  0.27511434  0.64516541  0.76490489    -0.26900
C1128       C  0.28479320  0.65740493  0.74400265    -0.15000
C1129       C  0.26839679  0.67046800  0.72838788     0.35700
C1130       C  0.24266466  0.66872579  0.73239372    -0.26300
C1131       C  0.23323350  0.65393085  0.75154393    -0.15600
C1132       C  0.24953260  0.64305173  0.76854027     0.36800
N1133       N  0.24009318  0.62922262  0.78910589    -0.89800
H1134       H  0.28744141  0.63619685  0.77796911     0.17900
H1135       H  0.23005668  0.67754102  0.71951023     0.17900
N1136       N  0.27751809  0.68433055  0.70773638    -0.88800
H1137       H  0.24697695  0.63739138  0.80540244     0.35200
H1138       H  0.24701950  0.61103771  0.78787838     0.40300
H1139       H  0.27187983  0.70288102  0.71001053     0.40000
H1140       H  0.26900426  0.67736991  0.69168196     0.34900
C1141       C  0.36873907  0.56436648  0.91793170    -0.26900
C1142       C  0.35068016  0.56611650  0.89922364    -0.15000
C1143       C  0.33269637  0.58534706  0.90084433     0.35700
C1144       C  0.33391728  0.60276614  0.92056967    -0.26300
C1145       C  0.35283696  0.60163304  0.93848156    -0.15600
C1146       C  0.36996901  0.58173565  0.93751292     0.36800
N1147       N  0.38863772  0.57920119  0.95637408    -0.89800
H1148       H  0.38232923  0.54947378  0.91715991     0.17900
H1149       H  0.32055090  0.61786584  0.92141834     0.17900
N1150       N  0.31352310  0.58745732  0.88244177    -0.88800
H1151       H  0.40002092  0.56376278  0.95269983     0.35200
H1152       H  0.37953563  0.57552900  0.97305192     0.40300
H1153       H  0.32197889  0.59278246  0.86586506     0.40000
H1154       H  0.30117301  0.60181246  0.88713819     0.34900
C1155       C  0.35198595  0.56514339  0.75992517    -0.26900
C1156       C  0.36783306  0.56685014  0.78055030    -0.15000
C1157       C  0.38519293  0.58673613  0.78135059     0.35700
C1158       C  0.38317878  0.60626811  0.76435717    -0.26300
C1159       C  0.36341434  0.60721451  0.74727987    -0.15600
C1160       C  0.35047476  0.58452134  0.74260685     0.36800
N1161       N  0.33436446  0.58126069  0.72157394    -0.89800
H1162       H  0.33997792  0.54905755  0.75764820     0.17900
H1163       H  0.39586484  0.62183786  0.76616835     0.17900
N1164       N  0.40413242  0.58853598  0.79991017    -0.88800
H1165       H  0.34065806  0.56564503  0.71166879     0.35200
H1166       H  0.33616382  0.59622836  0.70942145     0.40300
H1167       H  0.41505813  0.57241401  0.79905475     0.40000
H1168       H  0.39577639  0.58996883  0.81734507     0.34900
C1169       C  0.26772352  0.43700717  0.83572263    -0.26900
C1170       C  0.27648500  0.41695797  0.82102141    -0.15000
C1171       C  0.30070498  0.41897429  0.81069160     0.35700
C1172       C  0.31496795  0.44033695  0.81461381    -0.26300
C1173       C  0.30633650  0.46033297  0.82900234    -0.15600
C1174       C  0.28250945  0.45856321  0.83986886     0.36800
N1175       N  0.27309893  0.47863691  0.85481776    -0.89800
H1176       H  0.24942533  0.43624389  0.84389897     0.17900
H1177       H  0.33327760  0.44103066  0.80629926     0.17900
N1178       N  0.31099994  0.39929558  0.79569986    -0.88800
H1179       H  0.26898905  0.47159413  0.87236741     0.35200
H1180       H  0.25652545  0.48481167  0.84686789     0.40300
H1181       H  0.31524163  0.40654837  0.77825550     0.40000
H1182       H  0.32754787  0.39337184  0.80388837     0.34900
C1183       C  0.23161997  0.36365579  0.73618914    -0.26900
C1184       C  0.25202231  0.36208929  0.75204874    -0.15000
C1185       C  0.27611107  0.35894980  0.74193825     0.35700
C1186       C  0.27931757  0.35864896  0.71607448    -0.26300
C1187       C  0.25911128  0.36240759  0.70035639    -0.15600
C1188       C  0.23500941  0.36424673  0.71046323     0.36800
N1189       N  0.21406345  0.36824170  0.69471010    -0.89800
H1190       H  0.21322113  0.36650797  0.74369367     0.17900
H1191       H  0.29782416  0.35758668  0.70823947     0.17900
N1192       N  0.29741934  0.35823543  0.75793625    -0.88800
H1193       H  0.20582865  0.38520724  0.69977650     0.35200
H1194       H  0.20123574  0.35401849  0.69808140     0.40300
H1195       H  0.29647485  0.34187885  0.76819197     0.40000
H1196       H  0.31377230  0.35704717  0.74755895     0.34900
C1197       C  0.21986582  0.44845194  0.60920057    -0.26900
C1198       C  0.21725891  0.46476902  0.62961661    -0.15000
C1199       C  0.23502302  0.46350386  0.64883226     0.35700
C1200       C  0.25207509  0.44356334  0.64908734    -0.26300
C1201       C  0.25086781  0.42399715  0.63140413    -0.15600
C1202       C  0.23703642  0.42861012  0.60963859     0.36800
N1203       N  0.23960209  0.41256881  0.58839703    -0.89800
H1204       H  0.20772557  0.45033275  0.59331215     0.17900
H1205       H  0.26513009  0.44249423  0.66426416     0.17900
N1206       N  0.23460979  0.48127524  0.66895947    -0.88800
H1207       H  0.24548027  0.42349788  0.57354017     0.35200
H1208       H  0.22210979  0.40539773  0.58388762     0.40300
H1209       H  0.23966440  0.49860621  0.66175410     0.40000
H1210       H  0.24798109  0.47684934  0.68226031     0.34900
C1211       C  0.17838829  0.57441769  0.73272510    -0.26900
C1212       C  0.16174908  0.59478047  0.73386818    -0.15000
C1213       C  0.13867745  0.59178117  0.72160538     0.35700
C1214       C  0.13546436  0.57230750  0.70410904    -0.26300
C1215       C  0.15420553  0.55451424  0.69985581    -0.15600
C1216       C  0.17504980  0.55466361  0.71580006     0.36800
N1217       N  0.19398304  0.53593259  0.71426831    -0.89800
H1218       H  0.19485012  0.57413051  0.74414741     0.17900
H1219       H  0.11855752  0.57159641  0.69324463     0.17900
N1220       N  0.11884894  0.60905056  0.72612339    -0.88800
H1221       H  0.20145503  0.53587036  0.69637160     0.35200
H1222       H  0.18592244  0.51856208  0.71773785     0.40300
H1223       H  0.10364679  0.59895494  0.73273051     0.40000
H1224       H  0.11372256  0.61696389  0.70922749     0.34900
C1225       C  0.38044888  0.80919174  0.67313937    -0.26900
C1226       C  0.35709957  0.79905299  0.66729304    -0.15000
C1227       C  0.33639098  0.80554401  0.68201099     0.35700
C1228       C  0.33922449  0.82223347  0.70162666    -0.26300
C1229       C  0.36210839  0.83340772  0.70677666    -0.15600
C1230       C  0.38321242  0.82623245  0.69278786     0.36800
N1231       N  0.40766330  0.83500356  0.69865847    -0.89800
H1232       H  0.39661344  0.80385013  0.66236499     0.17900
H1233       H  0.32285711  0.82725680  0.71211955     0.17900
N1234       N  0.31205079  0.79628450  0.67662273    -0.88800
H1235       H  0.41115809  0.83144805  0.71734515     0.35200
H1236       H  0.40871026  0.85420624  0.69574856     0.40300
H1237       H  0.30030229  0.81149114  0.67358474     0.40000
H1238       H  0.30554941  0.78682761  0.69221007     0.34900
C1239       C  0.33898809  0.69570631  0.64691849    -0.26900
C1240       C  0.35586122  0.71554192  0.64938857    -0.15000
C1241       C  0.37119078  0.71683129  0.67047403     0.35700
C1242       C  0.36857629  0.69919616  0.68936215    -0.26300
C1243       C  0.35082517  0.68017472  0.68758311    -0.15600
C1244       C  0.33654183  0.67772293  0.66576186     0.36800
N1245       N  0.31949315  0.65726059  0.66295993    -0.89800
H1246       H  0.32674818  0.69509270  0.63098230     0.17900
H1247       H  0.37969000  0.70104402  0.70602833     0.17900
N1248       N  0.38848658  0.73695486  0.67335223    -0.88800
H1249       H  0.31004117  0.65849595  0.64608598     0.35200
H1250       H  0.30615655  0.65869483  0.67692367     0.40300
H1251       H  0.38399565  0.74675109  0.68959989     0.40000
H1252       H  0.40618238  0.72928185  0.67557300     0.34900
C1253       C  0.17057606  0.72682708  0.69687118    -0.26900
C1254       C  0.18032335  0.71922376  0.67388336    -0.15000
C1255       C  0.18745715  0.69404270  0.67043213     0.35700
C1256       C  0.18457803  0.67715944  0.68970800    -0.26300
C1257       C  0.17395259  0.68441152  0.71236348    -0.15600
C1258       C  0.16679265  0.70957218  0.71593686     0.36800
N1259       N  0.15420056  0.71776412  0.73791329    -0.89800
H1260       H  0.16483514  0.74600408  0.69966754     0.17900
H1261       H  0.19069464  0.65806771  0.68683477     0.17900
N1262       N  0.19777243  0.68537565  0.64742393    -0.88800
H1263       H  0.16571040  0.71515411  0.75319370     0.35200
H1264       H  0.13830697  0.70677162  0.73999951     0.40300
H1265       H  0.21512332  0.67743619  0.65103527     0.40000
H1266       H  0.18627315  0.67126659  0.64041588     0.34900
C1267       C  0.18142980  0.82549825  0.65210011    -0.26900
C1268       C  0.16635498  0.80467843  0.65691912    -0.15000
C1269       C  0.15190858  0.80456574  0.67883139     0.35700
C1270       C  0.15482711  0.82388849  0.69637928    -0.26300
C1271       C  0.17177836  0.84339554  0.69269638    -0.15600
C1272       C  0.18431250  0.84473047  0.66975720     0.36800
N1273       N  0.20131815  0.86452518  0.66461905    -0.89800
H1274       H  0.19290728  0.82563381  0.63558460     0.17900
H1275       H  0.14519044  0.82257882  0.71391085     0.17900
N1276       N  0.13550650  0.78428722  0.68470662    -0.88800
H1277       H  0.21513684  0.86437060  0.67812660     0.35200
H1278       H  0.19172074  0.88141353  0.66619497     0.40300
H1279       H  0.13454612  0.77135969  0.67010915     0.40000
H1280       H  0.11765991  0.79168355  0.68658662     0.34900
C1281       C  0.25111610  0.78914675  0.63046468    -0.26900
C1282       C  0.23979650  0.76812882  0.64075927    -0.15000
C1283       C  0.25464002  0.74817196  0.64901685     0.35700
C1284       C  0.28008840  0.74842161  0.64451189    -0.26300
C1285       C  0.29106696  0.76821018  0.63176925    -0.15600
C1286       C  0.27664317  0.78952875  0.62603008     0.36800
N1287       N  0.28727102  0.81188261  0.61617344    -0.89800
H1288       H  0.23979795  0.80464764  0.62432919     0.17900
H1289       H  0.29112236  0.73240730  0.64983020     0.17900
N1290       N  0.24411472  0.72657125  0.66026277    -0.88800
H1291       H  0.29375518  0.80848509  0.59825155     0.35200
H1292       H  0.30210084  0.81742368  0.62742829     0.40300
H1293       H  0.23414119  0.73231317  0.67598087     0.40000
H1294       H  0.23193526  0.71857424  0.64753698     0.34900
C1295       C  0.32811734  0.92057019  0.55880441    -0.26900
C1296       C  0.34640292  0.92184307  0.54014928    -0.15000
C1297       C  0.36381005  0.94169267  0.54132572     0.35700
C1298       C  0.36279587  0.95909412  0.56077349    -0.26300
C1299       C  0.34483600  0.95772320  0.57960242    -0.15600
C1300       C  0.32713770  0.93813268  0.57837701     0.36800
N1301       N  0.30813703  0.93532466  0.59672235    -0.89800
H1302       H  0.31455278  0.90563601  0.55837565     0.17900
H1303       H  0.37653204  0.97387360  0.56113467     0.17900
N1304       N  0.38298031  0.94482949  0.52321026    -0.88800
H1305       H  0.29727244  0.95149436  0.59704823     0.35200
H1306       H  0.31654603  0.93306658  0.61402189     0.40300
H1307       H  0.37481479  0.94690987  0.50576576     0.40000
H1308       H  0.39446060  0.92910747  0.52324145     0.34900
C1309       C  0.35213957  0.78513537  0.53342616    -0.26900
C1310       C  0.36692134  0.80673201  0.53332390    -0.15000
C1311       C  0.38479041  0.80981513  0.55231508     0.35700
C1312       C  0.38424571  0.79394130  0.57293027    -0.26300
C1313       C  0.36556765  0.77577783  0.57560972    -0.15600
C1314       C  0.35201458  0.76904038  0.55389494     0.36800
N1315       N  0.33741769  0.74661405  0.55224457    -0.89800
H1316       H  0.33979228  0.78125722  0.51801373     0.17900
H1317       H  0.39754057  0.79702279  0.58763415     0.17900
N1318       N  0.40238010  0.82998001  0.55152203    -0.88800
H1319       H  0.31877185  0.75158261  0.55073786     0.35200
H1320       H  0.33944870  0.73565626  0.56807561     0.40300
H1321       H  0.41432799  0.82649490  0.53660511     0.40000
H1322       H  0.41341284  0.83028593  0.56746490     0.34900
C1323       C  0.27503787  0.89469179  0.40043155    -0.26900
C1324       C  0.25755416  0.87518236  0.39878617    -0.15000
C1325       C  0.25211424  0.86234044  0.42109016     0.35700
C1326       C  0.26922437  0.86315965  0.44074005    -0.26300
C1327       C  0.29042254  0.87840621  0.43954488    -0.15600
C1328       C  0.29178822  0.89623981  0.42039687     0.36800
N1329       N  0.31089842  0.91497607  0.42050111    -0.89800
H1330       H  0.27687327  0.90791933  0.38556121     0.17900
H1331       H  0.26641770  0.85107927  0.45650450     0.17900
N1332       N  0.22981238  0.84805022  0.42410793    -0.88800
H1333       H  0.30760096  0.92676628  0.43571540     0.35200
H1334       H  0.30970589  0.92610606  0.40472690     0.40300
H1335       H  0.22885191  0.83371476  0.41096814     0.40000
H1336       H  0.21471537  0.85996491  0.42135280     0.34900
C1337       C  0.24223463  0.78147575  0.33419153    -0.26900
C1338       C  0.25892773  0.79651063  0.34752738    -0.15000
C1339       C  0.27974423  0.78512857  0.35892990     0.35700
C1340       C  0.28163467  0.75897719  0.35912775    -0.26300
C1341       C  0.26372764  0.74402336  0.34751787    -0.15600
C1342       C  0.24428677  0.75538334  0.33435692     0.36800
N1343       N  0.22561483  0.74051898  0.32252360    -0.89800
H1344       H  0.22664803  0.78979883  0.32474814     0.17900
H1345       H  0.29678382  0.75014068  0.36894616     0.17900
N1346       N  0.29881430  0.80005780  0.37035122    -0.88800
H1347       H  0.22528514  0.74507072  0.30372658     0.35200
H1348       H  0.20844054  0.74545569  0.33016800     0.40300
H1349       H  0.30749088  0.81012389  0.35633487     0.40000
H1350       H  0.31249150  0.78874050  0.37824037     0.34900
C1351       C  0.17289160  0.58463690  0.54577956    -0.26900
C1352       C  0.15048620  0.59670734  0.54002629    -0.15000
C1353       C  0.12879074  0.58993499  0.55326029     0.35700
C1354       C  0.13012205  0.57170036  0.57171709    -0.26300
C1355       C  0.15272077  0.56022192  0.57798020    -0.15600
C1356       C  0.17432867  0.56680766  0.56452922     0.36800
N1357       N  0.19806909  0.55581430  0.56930047    -0.89800
H1358       H  0.18975482  0.58942652  0.53594125     0.17900
H1359       H  0.11331230  0.56690424  0.58164200     0.17900
N1360       N  0.10516487  0.60123814  0.54865033    -0.88800
H1361       H  0.19660664  0.53644760  0.56724923     0.35200
H1362       H  0.20342731  0.56025509  0.58742969     0.40300
H1363       H  0.10056646  0.59849663  0.52999874     0.40000
H1364       H  0.10644195  0.62035914  0.55247025     0.34900
C1365       C  0.18426016  0.70437318  0.55631204    -0.26900
C1366       C  0.16286390  0.70834723  0.54237326    -0.15000
C1367       C  0.14674705  0.72815248  0.54921313     0.35700
C1368       C  0.15246257  0.74320835  0.57033476    -0.26300
C1369       C  0.17363480  0.73828445  0.58487685    -0.15600
C1370       C  0.18942767  0.71826834  0.57744007     0.36800
N1371       N  0.21043397  0.71094328  0.59205245    -0.89800
H1372       H  0.19679982  0.68920399  0.55166769     0.17900
H1373       H  0.13984709  0.75790919  0.57595832     0.17900
N1374       N  0.12458713  0.73262613  0.53514111    -0.88800
H1375       H  0.22633835  0.71210985  0.58099372     0.35200
H1376       H  0.20812880  0.69230258  0.59716042     0.40300
H1377       H  0.13003405  0.73798687  0.51730433     0.40000
H1378       H  0.11469990  0.74759587  0.54271154     0.34900
C1379       C  0.22063058  0.64043683  0.42422999    -0.26900
C1380       C  0.21573179  0.65867758  0.44240567    -0.15000
C1381       C  0.23096827  0.68006923  0.44348626     0.35700
C1382       C  0.24722909  0.68502759  0.42376048    -0.26300
C1383       C  0.24812126  0.66931286  0.40265847    -0.15600
C1384       C  0.23731628  0.64527244  0.40468798     0.36800
N1385       N  0.24168542  0.62670093  0.38579909    -0.89800
H1386       H  0.21027425  0.62310267  0.42430817     0.17900
H1387       H  0.25827724  0.70179263  0.42471839     0.17900
N1388       N  0.22925503  0.69710834  0.46417916    -0.88800
H1389       H  0.23179520  0.61039315  0.38964512     0.35200
H1390       H  0.26048467  0.62194551  0.38656582     0.40300
H1391       H  0.24155010  0.71205376  0.46203870     0.40000
H1392       H  0.23496278  0.68751468  0.47997943     0.34900
C1393       C  0.30500676  0.29810854  0.84121545    -0.26900
C1394       C  0.31162152  0.28579229  0.81911136    -0.15000
C1395       C  0.29645838  0.28890413  0.79797272     0.35700
C1396       C  0.27814062  0.30744134  0.79817305    -0.26300
C1397       C  0.27531671  0.32328109  0.81878346    -0.15600
C1398       C  0.28683355  0.31666774  0.84133335     0.36800
N1399       N  0.28008503  0.32790258  0.86459460    -0.89800
H1400       H  0.31515612  0.29444318  0.85814821     0.17900
H1401       H  0.26805558  0.31105494  0.78120319     0.17900
N1402       N  0.30063833  0.27488710  0.77566010    -0.88800
H1403       H  0.26091925  0.32597028  0.86690296     0.35200
H1404       H  0.28448846  0.34682017  0.86477430     0.40300
H1405       H  0.28432515  0.26516400  0.77140086     0.40000
H1406       H  0.30400702  0.28743524  0.76131317     0.34900
C1407       C  0.35197252  0.18886121  0.81253490    -0.26900
C1408       C  0.34816483  0.21004619  0.82761294    -0.15000
C1409       C  0.32860564  0.20992286  0.84515749     0.35700
C1410       C  0.31152406  0.19026053  0.84484109    -0.26300
C1411       C  0.31357676  0.17065109  0.82764649    -0.15600
C1412       C  0.33485594  0.16908269  0.81250061     0.36800
N1413       N  0.33857329  0.14845904  0.79584061    -0.89800
H1414       H  0.36691499  0.18875147  0.79907927     0.17900
H1415       H  0.29518726  0.19154677  0.85653351     0.17900
N1416       N  0.32405475  0.23054659  0.86180815    -0.88800
H1417       H  0.32346720  0.14740547  0.78373144     0.35200
H1418       H  0.33890043  0.13212847  0.80633354     0.40300
H1419       H  0.33839709  0.24359412  0.86113862     0.40000
H1420       H  0.32432226  0.22355832  0.87985075     0.34900
C1421       C  0.32572733  0.20059381  0.66094433    -0.26900
C1422       C  0.32194260  0.22302796  0.64824101    -0.15000
C1423       C  0.29953366  0.22666643  0.63544499     0.35700
C1424       C  0.28112073  0.20807895  0.63590236    -0.26300
C1425       C  0.28533411  0.18537492  0.64796016    -0.15600
C1426       C  0.30809485  0.18159874  0.66048165     0.36800
N1427       N  0.31405152  0.15874976  0.67281940    -0.89800
H1428       H  0.34293673  0.19745054  0.67081124     0.17900
H1429       H  0.26377561  0.21111559  0.62623347     0.17900
N1430       N  0.29585402  0.24862768  0.62108102    -0.88800
H1431       H  0.31609557  0.14454132  0.65958768     0.35200
H1432       H  0.29975161  0.15399249  0.68489305     0.40300
H1433       H  0.29296614  0.24312439  0.60263425     0.40000
H1434       H  0.27967986  0.25720381  0.62738095     0.34900
C1435       C  0.32204850  0.30582943  0.61316452    -0.26900
C1436       C  0.34395677  0.30765611  0.62709194    -0.15000
C1437       C  0.35015584  0.33118645  0.63781388     0.35700
C1438       C  0.33219811  0.35031037  0.63848818    -0.26300
C1439       C  0.30880968  0.34683044  0.62768820    -0.15600
C1440       C  0.30474635  0.32551690  0.61278780     0.36800
N1441       N  0.28258039  0.32364126  0.59812032    -0.89800
H1442       H  0.31774951  0.28844115  0.60376840     0.17900
H1443       H  0.33595318  0.36727151  0.64892141     0.17900
N1444       N  0.37403545  0.33626966  0.64857437    -0.88800
H1445       H  0.28248262  0.30688460  0.58798432     0.35200
H1446       H  0.28300720  0.33801738  0.58517303     0.40300
H1447       H  0.38560017  0.32065482  0.64795236     0.40000
H1448       H  0.37147144  0.34115058  0.66713319     0.34900
C1449       C  0.34516199  0.24610469  0.71515953    -0.26900
C1450       C  0.34958162  0.26956574  0.70459700    -0.15000
C1451       C  0.35320420  0.29046608  0.72009876     0.35700
C1452       C  0.35501392  0.28716048  0.74562277    -0.26300
C1453       C  0.35366386  0.26318530  0.75592705    -0.15600
C1454       C  0.34742703  0.24262804  0.74082750     0.36800
N1455       N  0.34516736  0.21815697  0.75129623    -0.89800
H1456       H  0.34252372  0.23003754  0.70316617     0.17900
H1457       H  0.35886217  0.30321692  0.75737797     0.17900
N1458       N  0.35681965  0.31488413  0.71023509    -0.88800
H1459       H  0.34084092  0.20506517  0.73750349     0.35200
H1460       H  0.36257766  0.21314677  0.75825746     0.40300
H1461       H  0.34154384  0.31914166  0.69906875     0.40000
H1462       H  0.37273199  0.31439017  0.69920085     0.34900
C1463       C  0.43536152  0.09439333  0.65452403    -0.26900
C1464       C  0.44894818  0.09709461  0.63246488    -0.15000
C1465       C  0.44165471  0.08326438  0.61134243     0.35700
C1466       C  0.42141035  0.06674967  0.61277745    -0.26300
C1467       C  0.40779534  0.06397112  0.63487005    -0.15600
C1468       C  0.41473290  0.07837814  0.65580980     0.36800
N1469       N  0.40080585  0.07710895  0.67838707    -0.89800
H1470       H  0.44040677  0.10523563  0.67081871     0.17900
H1471       H  0.41635416  0.05604084  0.59640845     0.17900
N1472       N  0.45489478  0.08564453  0.58845122    -0.88800
H1473       H  0.39426970  0.09505551  0.68258323     0.35200
H1474       H  0.41284068  0.07174543  0.69256210     0.40300
H1475       H  0.44233930  0.09143220  0.57488763     0.40000
H1476       H  0.46153914  0.06800070  0.58331180     0.34900
C1477       C  0.43956734  0.20613827  0.65891348    -0.26900
C1478       C  0.45409545  0.20847055  0.63768993    -0.15000
C1479       C  0.44793853  0.22694912  0.62022468     0.35700
C1480       C  0.42704155  0.24258939  0.62447612    -0.26300
C1481       C  0.41180345  0.23970043  0.64559208    -0.15600
C1482       C  0.41858814  0.22066435  0.66293445     0.36800
N1483       N  0.40424474  0.21423650  0.68443714    -0.89800
H1484       H  0.44384413  0.19174907  0.67229183     0.17900
H1485       H  0.42208789  0.25613682  0.61059572     0.17900
N1486       N  0.46264226  0.22957039  0.59818426    -0.88800
H1487       H  0.38567549  0.21104266  0.68000608     0.35200
H1488       H  0.40618355  0.22759144  0.69842888     0.40300
H1489       H  0.48045791  0.23506539  0.60366951     0.40000
H1490       H  0.45563679  0.24388966  0.58716079     0.34900
C1491       C  0.45650838  0.45080444  0.82874360    -0.26900
C1492       C  0.45562263  0.43184327  0.84653763    -0.15000
C1493       C  0.43708063  0.43285389  0.86511646     0.35700
C1494       C  0.41930800  0.45210919  0.86474932    -0.26300
C1495       C  0.41945091  0.47036066  0.84620056    -0.15600
C1496       C  0.43890576  0.47021412  0.82855664     0.36800
N1497       N  0.44061799  0.48953475  0.81029136    -0.89800
H1498       H  0.47095848  0.45042151  0.81476404     0.17900
H1499       H  0.40466851  0.45226088  0.87852886     0.17900
N1500       N  0.43577861  0.41395781  0.88385433    -0.88800
H1501       H  0.45565798  0.48635738  0.79841226     0.35200
H1502       H  0.44435384  0.50626834  0.81969488     0.40300
H1503       H  0.43076600  0.39721649  0.87509036     0.40000
H1504       H  0.42168233  0.41799326  0.89660570     0.34900
C1505       C  0.42645359  0.32864606  0.82305730    -0.26900
C1506       C  0.44671145  0.31957956  0.83642061    -0.15000
C1507       C  0.44536212  0.29509547  0.84640796     0.35700
C1508       C  0.42391088  0.28046236  0.84211132    -0.26300
C1509       C  0.40400658  0.28938158  0.82773757    -0.15600
C1510       C  0.40546193  0.31412062  0.81863120     0.36800
N1511       N  0.38578438  0.32449951  0.80405207    -0.89800
H1512       H  0.42693002  0.34737296  0.81557217     0.17900
H1513       H  0.42347989  0.26174324  0.84937586     0.17900
N1514       N  0.46537522  0.28394882  0.86006050    -0.88800
H1515       H  0.37947836  0.34074363  0.81290817     0.35200
H1516       H  0.39302372  0.32946415  0.78678594     0.40300
H1517       H  0.48087967  0.29553830  0.86099897     0.40000
H1518       H  0.47109787  0.26806225  0.85025859     0.34900
C1519       C  0.57055759  0.38476735  0.77714593    -0.26900
C1520       C  0.55037939  0.36825866  0.77872940    -0.15000
C1521       C  0.54702693  0.35061797  0.75931542     0.35700
C1522       C  0.56550752  0.34754242  0.74129669    -0.26300
C1523       C  0.58837159  0.36024012  0.74306838    -0.15600
C1524       C  0.58925672  0.38140403  0.75924117     0.36800
N1525       N  0.60911937  0.39932189  0.75862527    -0.89800
H1526       H  0.57253084  0.39973466  0.79064680     0.17900
H1527       H  0.56242562  0.33374400  0.72688291     0.17900
N1528       N  0.52539792  0.33514455  0.75753530    -0.88800
H1529       H  0.61903159  0.39815645  0.77521658     0.35200
H1530       H  0.62137348  0.39573734  0.74401857     0.40300
H1531       H  0.50965843  0.34655519  0.75784181     0.40000
H1532       H  0.52494401  0.32308346  0.77264502     0.34900
C1533       C  0.56942556  0.16147893  0.73138354    -0.26900
C1534       C  0.59149053  0.14778094  0.72769474    -0.15000
C1535       C  0.59016978  0.12709125  0.71102928     0.35700
C1536       C  0.57055192  0.12561509  0.69387556    -0.26300
C1537       C  0.55160777  0.14362884  0.69376919    -0.15600
C1538       C  0.55002401  0.16050758  0.71397973     0.36800
N1539       N  0.52949432  0.17755398  0.71606167    -0.89800
H1540       H  0.56851260  0.17520173  0.74622048     0.17900
H1541       H  0.57087324  0.11104610  0.67981519     0.17900
N1542       N  0.60820108  0.10731807  0.71119707    -0.88800
H1543       H  0.53162568  0.18932693  0.73150707     0.35200
H1544       H  0.51351620  0.16698773  0.71915057     0.40300
H1545       H  0.62122123  0.11005585  0.72528305     0.40000
H1546       H  0.61750232  0.10710748  0.69415882     0.34900
C1547       C  0.65085792  0.23878064  0.71816572    -0.26900
C1548       C  0.63732122  0.22875760  0.73804929    -0.15000
C1549       C  0.62229073  0.24479996  0.75261939     0.35700
C1550       C  0.62182063  0.27020053  0.74764709    -0.26300
C1551       C  0.63428625  0.28018157  0.72710254    -0.15600
C1552       C  0.64899308  0.26428884  0.71225588     0.36800
N1553       N  0.66104847  0.27368662  0.69059342    -0.89800
H1554       H  0.66171958  0.22652406  0.70630901     0.17900
H1555       H  0.61093502  0.28215326  0.75977080     0.17900
N1556       N  0.60671104  0.23597958  0.77223159    -0.88800
H1557       H  0.65440710  0.26370121  0.67521296     0.35200
H1558       H  0.68003946  0.27011072  0.69220406     0.40300
H1559       H  0.61750389  0.22665571  0.78515999     0.40000
H1560       H  0.59345585  0.22371304  0.76505759     0.34900
C1561       C  0.72126982  0.16582101  0.68762813    -0.26900
C1562       C  0.71467897  0.17087900  0.66298455    -0.15000
C1563       C  0.68950080  0.17590127  0.65728171     0.35700
C1564       C  0.67171072  0.17502672  0.67618945    -0.26300
C1565       C  0.67834586  0.16955864  0.70068243    -0.15600
C1566       C  0.70331708  0.16484419  0.70649786     0.36800
N1567       N  0.71026055  0.15838723  0.73132640    -0.89800
H1568       H  0.74045514  0.16220827  0.69219056     0.17900
H1569       H  0.65249072  0.17907403  0.67185775     0.17900
N1570       N  0.68201639  0.18247857  0.63258153    -0.88800
H1571       H  0.72931911  0.15492485  0.73217113     0.35200
H1572       H  0.70159424  0.14148735  0.73544831     0.40300
H1573       H  0.69017954  0.19961051  0.62835863     0.40000
H1574       H  0.66281098  0.18512187  0.63160293     0.34900
C1575       C  0.68064961  0.34128278  0.64278135    -0.26900
C1576       C  0.70108816  0.35676444  0.64764460    -0.15000
C1577       C  0.70068904  0.37230006  0.66883293     0.35700
C1578       C  0.68104101  0.37057095  0.68587488    -0.26300
C1579       C  0.66187400  0.35323207  0.68227172    -0.15600
C1580       C  0.66104282  0.33922012  0.65987164     0.36800
N1581       N  0.64158413  0.32157594  0.65460268    -0.89800
H1582       H  0.68095485  0.32904908  0.62668753     0.17900
H1583       H  0.68184860  0.38132545  0.70297782     0.17900
N1584       N  0.72127449  0.38841493  0.67406363    -0.88800
H1585       H  0.63277829  0.32730389  0.63834569     0.35200
H1586       H  0.62797525  0.32180993  0.66838102     0.40300
H1587       H  0.71452259  0.40665129  0.67579564     0.40000
H1588       H  0.72881616  0.38328424  0.69113534     0.34900
C1589       C  0.77544556  0.27442244  0.63700343    -0.26900
C1590       C  0.75162199  0.28503546  0.63821206    -0.15000
C1591       C  0.73073562  0.26950599  0.64099816     0.35700
C1592       C  0.73397291  0.24361139  0.64125902    -0.26300
C1593       C  0.75758654  0.23307092  0.63781458    -0.15600
C1594       C  0.77855459  0.24860452  0.63626003     0.36800
N1595       N  0.80295605  0.23862159  0.63256089    -0.89800
H1596       H  0.79157162  0.28631495  0.63483236     0.17900
H1597       H  0.71779853  0.23165770  0.64208761     0.17900
N1598       N  0.70605365  0.27939294  0.64151537    -0.88800
H1599       H  0.80307093  0.22819783  0.61606985     0.35200
H1600       H  0.80685393  0.22662808  0.64722795     0.40300
H1601       H  0.70311885  0.28921417  0.62509180     0.40000
H1602       H  0.70467743  0.29188098  0.65641746     0.34900
C1603       C  0.81532879  0.34664699  0.56282341    -0.26900
C1604       C  0.80733404  0.36150267  0.54330870    -0.15000
C1605       C  0.78398101  0.37355471  0.54512717     0.35700
C1606       C  0.76888351  0.36973303  0.56644109    -0.26300
C1607       C  0.77706893  0.35447980  0.58598466    -0.15600
C1608       C  0.80089725  0.34315616  0.58383947     0.36800
N1609       N  0.81057046  0.32751133  0.60304756    -0.89800
H1610       H  0.83331942  0.33758192  0.56194072     0.17900
H1611       H  0.75082989  0.37849073  0.56759536     0.17900
N1612       N  0.77529979  0.38873817  0.52510393    -0.88800
H1613       H  0.81412358  0.30982982  0.59546209     0.35200
H1614       H  0.82739941  0.33506495  0.60917679     0.40300
H1615       H  0.78679257  0.40440578  0.52421923     0.40000
H1616       H  0.75741996  0.39538496  0.52889297     0.34900
C1617       C  0.88441668  0.30358220  0.42210339    -0.26900
C1618       C  0.86605354  0.30467207  0.44059804    -0.15000
C1619       C  0.84773376  0.28586482  0.44098112     0.35700
C1620       C  0.84589262  0.26910312  0.42090825    -0.26300
C1621       C  0.86058551  0.27195309  0.39946827    -0.15600
C1622       C  0.88221311  0.28702196  0.40180896     0.36800
N1623       N  0.90224782  0.28581701  0.38423720    -0.89800
H1624       H  0.89990343  0.31647936  0.42269199     0.17900
H1625       H  0.83143391  0.25509128  0.42122999     0.17900
N1626       N  0.83030850  0.28454512  0.46113728    -0.88800
H1627       H  0.90334844  0.30294090  0.37516239     0.35200
H1628       H  0.89928208  0.27180109  0.37098704     0.40300
H1629       H  0.84026893  0.28010841  0.47713298     0.40000
H1630       H  0.81756536  0.27008760  0.45822509     0.34900
C1631       C  0.77125914  0.28189267  0.35901632    -0.26900
C1632       C  0.78315170  0.26126499  0.34787288    -0.15000
C1633       C  0.76889570  0.24386375  0.33429202     0.35700
C1634       C  0.74297617  0.24655819  0.33332431    -0.26300
C1635       C  0.73117625  0.26610510  0.34615211    -0.15600
C1636       C  0.74541929  0.28415807  0.35861201     0.36800
N1637       N  0.73356277  0.30439466  0.37149050    -0.89800
H1638       H  0.78200071  0.29594824  0.36881430     0.17900
H1639       H  0.73196320  0.23245514  0.32390966     0.17900
N1640       N  0.78042710  0.22275076  0.32264797    -0.88800
H1641       H  0.74029483  0.32111266  0.36422242     0.35200
H1642       H  0.73873542  0.30360948  0.39015303     0.40300
H1643       H  0.77620707  0.22325289  0.30375131     0.40000
H1644       H  0.77258381  0.20655972  0.32998725     0.34900
C1645       C  0.58777928  0.17552395  0.54938104    -0.26900
C1646       C  0.59755622  0.15273856  0.54067911    -0.15000
C1647       C  0.58820502  0.13031297  0.55054799     0.35700
C1648       C  0.56954321  0.13106394  0.56872310    -0.26300
C1649       C  0.55980142  0.15380881  0.57756541    -0.15600
C1650       C  0.56913975  0.17636401  0.56773389     0.36800
N1651       N  0.55946711  0.20003485  0.57596586    -0.89800
H1652       H  0.59476593  0.19286243  0.54189318     0.17900
H1653       H  0.56273240  0.11357899  0.57605187     0.17900
N1654       N  0.59756671  0.10663591  0.54228007    -0.88800
H1655       H  0.56711803  0.21459071  0.56565718     0.35200
H1656       H  0.56540839  0.20285471  0.59421955     0.40300
H1657       H  0.58269887  0.09622702  0.53520767     0.40000
H1658       H  0.60463792  0.09724921  0.55764694     0.34900
C1659       C  0.74503477  0.18126788  0.55647513    -0.26900
C1660       C  0.74659707  0.16327635  0.57533451    -0.15000
C1661       C  0.73681948  0.13921128  0.56980834     0.35700
C1662       C  0.72026966  0.13620101  0.54982067    -0.26300
C1663       C  0.71425943  0.15642365  0.53447124    -0.15600
C1664       C  0.72826713  0.17852604  0.53683570     0.36800
N1665       N  0.72495212  0.19872106  0.51989947    -0.89800
H1666       H  0.75558738  0.19834632  0.55730572     0.17900
H1667       H  0.71123923  0.11832336  0.54705601     0.17900
N1668       N  0.74319775  0.11766407  0.58406831    -0.88800
H1669       H  0.74209727  0.20259761  0.51170818     0.35200
H1670       H  0.71945144  0.21448916  0.53007749     0.40300
H1671       H  0.73780052  0.12003830  0.60249089     0.40000
H1672       H  0.76247554  0.11552832  0.58351979     0.34900
C1673       C  0.63136795  0.21447042  0.41995031    -0.26900
C1674       C  0.64932617  0.21378612  0.43877764    -0.15000
C1675       C  0.66778241  0.23237219  0.43938680     0.35700
C1676       C  0.67030823  0.24853071  0.41918258    -0.26300
C1677       C  0.65574633  0.24559400  0.39758422    -0.15600
C1678       C  0.63403063  0.23054955  0.39958980     0.36800
N1679       N  0.61458363  0.23082232  0.38135889    -0.89800
H1680       H  0.61593819  0.20149795  0.42028210     0.17900
H1681       H  0.68466789  0.26259311  0.41999468     0.17900
N1682       N  0.68445643  0.23418736  0.46015059    -0.88800
H1683       H  0.61427200  0.21343824  0.37241182     0.35200
H1684       H  0.61759563  0.24449298  0.36803286     0.40300
H1685       H  0.67392451  0.23896004  0.47574437     0.40000
H1686       H  0.69726911  0.24863699  0.45760034     0.34900
C1687       C  0.76486457  0.27533292  0.11282368    -0.26900
C1688       C  0.77894892  0.25702550  0.12456184    -0.15000
C1689       C  0.76690819  0.23756963  0.13713866     0.35700
C1690       C  0.74082668  0.23628223  0.13708613    -0.26300
C1691       C  0.72661336  0.25421106  0.12460190    -0.15600
C1692       C  0.73892213  0.27447578  0.11319211     0.36800
N1693       N  0.72524970  0.29461428  0.10245175    -0.89800
H1694       H  0.77409681  0.29050986  0.10336677     0.17900
H1695       H  0.73175979  0.22081137  0.14618905     0.17900
N1696       N  0.78110268  0.21857552  0.14909682    -0.88800
H1697       H  0.73036935  0.29595172  0.08379232     0.35200
H1698       H  0.73047954  0.31116893  0.11141818     0.40300
H1699       H  0.77615229  0.20136839  0.14124143     0.40000
H1700       H  0.77607503  0.21834549  0.16781306     0.34900
C1701       C  0.84939960  0.23996348  0.03299518    -0.26900
C1702       C  0.86569566  0.21946212  0.03420638    -0.15000
C1703       C  0.88225379  0.21827244  0.05459901     0.35700
C1704       C  0.87935618  0.23482316  0.07457199    -0.26300
C1705       C  0.85888786  0.25110517  0.07589974    -0.15600
C1706       C  0.84647710  0.25635426  0.05342159     0.36800
N1707       N  0.82991967  0.27732971  0.05200433    -0.89800
H1708       H  0.83793221  0.24242247  0.01670107     0.17900
H1709       H  0.89176397  0.23296374  0.09021821     0.17900
N1710       N  0.90105700  0.19949693  0.05659702    -0.88800
H1711       H  0.82223594  0.27854758  0.03425158     0.35200
H1712       H  0.84053807  0.29345982  0.05470684     0.40300
H1713       H  0.91259058  0.20040905  0.04104191     0.40000
H1714       H  0.89260018  0.18196461  0.05739021     0.34900
C1715       C  0.55908205  0.34337756  0.90977651    -0.26900
C1716       C  0.55313743  0.36689958  0.90009622    -0.15000
C1717       C  0.56376000  0.38846610  0.91110557     0.35700
C1718       C  0.58035112  0.38591971  0.93104217    -0.26300
C1719       C  0.58672002  0.36239311  0.94038583    -0.15600
C1720       C  0.57557428  0.34084664  0.92985149     0.36800
N1721       N  0.58137725  0.31642886  0.93908287    -0.89800
H1722       H  0.55076313  0.32680089  0.90166981     0.17900
H1723       H  0.58870106  0.40251268  0.93908227     0.17900
N1724       N  0.55802620  0.41290576  0.90188757    -0.88800
H1725       H  0.57261368  0.30259279  0.92842980     0.35200
H1726       H  0.57385437  0.31517195  0.95688711     0.40300
H1727       H  0.56570083  0.41422240  0.88414428     0.40000
H1728       H  0.56661869  0.42673740  0.91267194     0.34900
C1729       C  0.65065880  0.27805526  0.03956165    -0.26900
C1730       C  0.63611729  0.29952930  0.04305584    -0.15000
C1731       C  0.62173064  0.30180644  0.06481122     0.35700
C1732       C  0.62528840  0.28462604  0.08407710    -0.26300
C1733       C  0.64391196  0.26614505  0.08255287    -0.15600
C1734       C  0.65383742  0.26073783  0.05877747     0.36800
N1735       N  0.66865309  0.23873609  0.05485503    -0.89800
H1736       H  0.66040836  0.27533143  0.02216565     0.17900
H1737       H  0.61467212  0.28698726  0.10093253     0.17900
N1738       N  0.60490189  0.32241948  0.06806703    -0.88800
H1739       H  0.67491339  0.23777560  0.03649637     0.35200
H1740       H  0.65714460  0.22329760  0.05749533     0.40300
H1741       H  0.61552538  0.33874141  0.06924171     0.40000
H1742       H  0.59542998  0.32101541  0.08490852     0.34900
C1743       C  0.68836964  0.17764955  0.82273466    -0.26900
C1744       C  0.70516819  0.15774124  0.82220513    -0.15000
C1745       C  0.70163759  0.13821358  0.80480795     0.35700
C1746       C  0.68230671  0.13995615  0.78713868    -0.26300
C1747       C  0.66676062  0.16100492  0.78639788    -0.15600
C1748       C  0.66936796  0.17944889  0.80513316     0.36800
N1749       N  0.65338836  0.20066165  0.80630460    -0.89800
H1750       H  0.69091965  0.19269345  0.83606669     0.17900
H1751       H  0.68024516  0.12554634  0.77307408     0.17900
N1752       N  0.71801175  0.11703348  0.80479662    -0.88800
H1753       H  0.65583270  0.21078125  0.79003367     0.35200
H1754       H  0.63510682  0.19418830  0.80725788     0.40300
H1755       H  0.73582189  0.12324478  0.80048461     0.40000
H1756       H  0.71295051  0.10433543  0.79081527     0.34900
C1757       C  0.78372203  0.12905701  0.89808060    -0.26900
C1758       C  0.76626858  0.14843873  0.89550424    -0.15000
C1759       C  0.76042764  0.16250525  0.91732705     0.35700
C1760       C  0.77661053  0.16178004  0.93781657    -0.26300
C1761       C  0.79732540  0.14584656  0.93793253    -0.15600
C1762       C  0.79941769  0.12784955  0.91880553     0.36800
N1763       N  0.81833728  0.10909332  0.91956501    -0.89800
H1764       H  0.78655709  0.11566721  0.88322546     0.17900
H1765       H  0.77341527  0.17439406  0.95330738     0.17900
N1766       N  0.73859330  0.17784993  0.91922035    -0.88800
H1767       H  0.82960669  0.11109684  0.90392197     0.35200
H1768       H  0.80973181  0.09162105  0.91849870     0.40300
H1769       H  0.72742239  0.17606643  0.90348478     0.40000
H1770       H  0.74410228  0.19648925  0.92089140     0.34900
C1771       C  0.68661807  0.32246219  0.80750923    -0.26900
C1772       C  0.71004713  0.33322183  0.80365942    -0.15000
C1773       C  0.71609113  0.34255015  0.78009635     0.35700
C1774       C  0.69810861  0.34225320  0.76115897    -0.26300
C1775       C  0.67425076  0.33283190  0.76566419    -0.15600
C1776       C  0.66884283  0.32197066  0.78871319     0.36800
N1777       N  0.64519156  0.31057410  0.79311735    -0.89800
H1778       H  0.68199527  0.31450857  0.82534022     0.17900
H1779       H  0.70237605  0.35048099  0.74336648     0.17900
N1780       N  0.73991930  0.35345794  0.77573652    -0.88800
H1781       H  0.63693288  0.31959393  0.80828301     0.35200
H1782       H  0.64820462  0.29193502  0.79788128     0.40300
H1783       H  0.74827098  0.34382445  0.76100277     0.40000
H1784       H  0.73724054  0.37195260  0.77030076     0.34900
C1785       C  0.73093094  0.35905522  0.91181167    -0.26900
C1786       C  0.72303038  0.34135447  0.89397765    -0.15000
C1787       C  0.70093398  0.32769704  0.89881774     0.35700
C1788       C  0.68782162  0.33151259  0.92072628    -0.26300
C1789       C  0.69529536  0.34927896  0.93824944    -0.15600
C1790       C  0.71705201  0.36333943  0.93385045     0.36800
N1791       N  0.72495466  0.38177488  0.95165837    -0.89800
H1792       H  0.74756740  0.36981033  0.90856365     0.17900
H1793       H  0.67094344  0.32087466  0.92357612     0.17900
N1794       N  0.69132422  0.30997359  0.88116024    -0.88800
H1795       H  0.74123088  0.39049392  0.94567218     0.35200
H1796       H  0.72938549  0.37246362  0.96802795     0.40300
H1797       H  0.67341655  0.31555362  0.87615977     0.40000
H1798       H  0.69003928  0.29260125  0.88975574     0.34900
C1799       C  0.77562763  0.26364449  0.84896192    -0.26900
C1800       C  0.75519438  0.27527693  0.83808154    -0.15000
C1801       C  0.73672395  0.26083678  0.82644307     0.35700
C1802       C  0.73798218  0.23477096  0.82754478    -0.26300
C1803       C  0.75742399  0.22312865  0.84023046    -0.15600
C1804       C  0.77728835  0.23760183  0.84961248     0.36800
N1805       N  0.79870731  0.22580864  0.86026224    -0.89800
H1806       H  0.78960865  0.27488107  0.85814324     0.17900
H1807       H  0.72293497  0.22374510  0.81986641     0.17900
N1808       N  0.71585596  0.27257758  0.81500961    -0.88800
H1809       H  0.81148941  0.23919959  0.86642188     0.35200
H1810       H  0.80747604  0.21568046  0.84612967     0.40300
H1811       H  0.69974823  0.26639418  0.82386240     0.40000
H1812       H  0.71511302  0.26665132  0.79649896     0.34900
C1813       C  0.22914490  0.21058513  0.80420397    -0.26900
C1814       C  0.23421573  0.19827970  0.82646228    -0.15000
C1815       C  0.22343918  0.20739660  0.84870411     0.35700
C1816       C  0.20562529  0.22635308  0.84758545    -0.26300
C1817       C  0.19849322  0.23659516  0.82478339    -0.15600
C1818       C  0.21149413  0.22958654  0.80314382     0.36800
N1819       N  0.20573710  0.24026425  0.77963455    -0.89800
H1820       H  0.23753447  0.20435183  0.78699672     0.17900
H1821       H  0.19635182  0.23224674  0.86448996     0.17900
N1822       N  0.23039587  0.19820792  0.87259732    -0.88800
H1823       H  0.20056475  0.22580523  0.76753966     0.35200
H1824       H  0.22188128  0.24841819  0.77263153     0.40300
H1825       H  0.24971135  0.19918343  0.87420262     0.40000
H1826       H  0.22482752  0.17969452  0.87440480     0.34900
C1827       C  0.16170533  0.33580165  0.81170691    -0.26900
C1828       C  0.16541726  0.31658379  0.82884567    -0.15000
C1829       C  0.18495304  0.31881492  0.84603774     0.35700
C1830       C  0.20193407  0.33866730  0.84420522    -0.26300
C1831       C  0.19999107  0.35622850  0.82513250    -0.15600
C1832       C  0.17882208  0.35568186  0.80972701     0.36800
N1833       N  0.17554348  0.37451728  0.79121277    -0.89800
H1834       H  0.14682082  0.33403854  0.79830008     0.17900
H1835       H  0.21821086  0.33873713  0.85599046     0.17900
N1836       N  0.18891784  0.29961020  0.86392049    -0.88800
H1837       H  0.15913117  0.37145305  0.78135652     0.35200
H1838       H  0.19004025  0.37280090  0.77845261     0.40300
H1839       H  0.18884021  0.30790984  0.88153265     0.40000
H1840       H  0.20652381  0.29194618  0.86086786     0.34900
C1841       C  0.15823041  0.19338565  0.64717297    -0.26900
C1842       C  0.16368038  0.21533995  0.63420128    -0.15000
C1843       C  0.18594578  0.21661977  0.62046799     0.35700
C1844       C  0.20340931  0.19711985  0.62204058    -0.26300
C1845       C  0.19900449  0.17631506  0.63700085    -0.15600
C1846       C  0.17581909  0.17397247  0.64882920     0.36800
N1847       N  0.17094577  0.15293895  0.66428205    -0.89800
H1848       H  0.14144116  0.19240661  0.65820004     0.17900
H1849       H  0.22122977  0.19893383  0.61292449     0.17900
N1850       N  0.19151431  0.23865743  0.60652548    -0.88800
H1851       H  0.15487595  0.14416602  0.65771724     0.35200
H1852       H  0.16732509  0.15956830  0.68220945     0.40300
H1853       H  0.17833276  0.23996216  0.59235826     0.40000
H1854       H  0.20883914  0.23702303  0.59794521     0.34900
C1855       C  0.20693178  0.29238929  0.64028872    -0.26900
C1856       C  0.18301185  0.30097802  0.64600612    -0.15000
C1857       C  0.17928013  0.32687925  0.64962541     0.35700
C1858       C  0.19866897  0.34345709  0.64545247    -0.26300
C1859       C  0.22257752  0.33501681  0.63952408    -0.15600
C1860       C  0.22674177  0.30910200  0.63743064     0.36800
N1861       N  0.25090221  0.29948074  0.63226056    -0.89800
H1862       H  0.21047059  0.27264055  0.63795837     0.17900
H1863       H  0.19509447  0.36313672  0.64849079     0.17900
N1864       N  0.15628866  0.33659571  0.65890070    -0.88800
H1865       H  0.25596389  0.28800990  0.64698464     0.35200
H1866       H  0.24969345  0.28843435  0.61620752     0.40300
H1867       H  0.14953428  0.34956292  0.64619233     0.40000
H1868       H  0.15976787  0.34598975  0.67562429     0.34900
C1869       C  0.16675907  0.27827557  0.71993126    -0.26900
C1870       C  0.15878737  0.25599811  0.70859271    -0.15000
C1871       C  0.15286575  0.23529956  0.72310690     0.35700
C1872       C  0.15262425  0.23782608  0.74887580    -0.26300
C1873       C  0.15784329  0.26095453  0.76031724    -0.15600
C1874       C  0.16625569  0.28093716  0.74583823     0.36800
N1875       N  0.17237751  0.30441824  0.75714123    -0.89800
H1876       H  0.17106138  0.29434926  0.70862180     0.17900
H1877       H  0.14705801  0.22199830  0.75995516     0.17900
N1878       N  0.14546854  0.21226197  0.71161325    -0.88800
H1879       H  0.16071044  0.31806064  0.74973701     0.35200
H1880       H  0.19062614  0.30884664  0.75226770     0.40300
H1881       H  0.12751128  0.20800856  0.71761335     0.40000
H1882       H  0.15737388  0.19822351  0.71781447     0.34900
C1883       C  0.93455032  0.18178855  0.89610904    -0.26900
C1884       C  0.95157938  0.16185014  0.89536221    -0.15000
C1885       C  0.94904618  0.14259449  0.91290260     0.35700
C1886       C  0.93020041  0.14379694  0.93082468    -0.26300
C1887       C  0.91308821  0.16358060  0.93161516    -0.15600
C1888       C  0.91513932  0.18271151  0.91376102     0.36800
N1889       N  0.89769056  0.20300944  0.91353234    -0.89800
H1890       H  0.93608040  0.19652341  0.88256127     0.17900
H1891       H  0.92879799  0.12874852  0.94405556     0.17900
N1892       N  0.96537144  0.12148646  0.91254025    -0.88800
H1893       H  0.88050138  0.19568235  0.90816255     0.35200
H1894       H  0.90252239  0.21600339  0.90000618     0.40300
H1895       H  0.95461327  0.10538280  0.91017304     0.40000
H1896       H  0.97414497  0.12046647  0.92978327     0.34900
C1897       C  0.06296809  0.08951347  0.81810320    -0.26900
C1898       C  0.05165003  0.09613829  0.84069016    -0.15000
C1899       C  0.05894191  0.08380829  0.86245032     0.35700
C1900       C  0.07793095  0.06582480  0.86141840    -0.26300
C1901       C  0.09015928  0.06005022  0.83900610    -0.15600
C1902       C  0.08210901  0.07166878  0.81698281     0.36800
N1903       N  0.09355658  0.06564931  0.79360099    -0.89800
H1904       H  0.05736054  0.09885723  0.80126667     0.17900
H1905       H  0.08357439  0.05685728  0.87844554     0.17900
N1906       N  0.04713839  0.08945119  0.88563169    -0.88800
H1907       H  0.08593978  0.07637018  0.77938061     0.35200
H1908       H  0.08925644  0.04705612  0.78942472     0.40300
H1909       H  0.06078385  0.09541542  0.89812200     0.40000
H1910       H  0.03938464  0.07297382  0.89243437     0.34900
C1911       C  0.08614974  0.24720464  0.84489406    -0.26900
C1912       C  0.10680350  0.23784344  0.83173136    -0.15000
C1913       C  0.10562421  0.21287269  0.82255837     0.35700
C1914       C  0.08415175  0.19875806  0.82531960    -0.26300
C1915       C  0.06319856  0.20821031  0.83743001    -0.15600
C1916       C  0.06441852  0.23245608  0.84811645     0.36800
N1917       N  0.04350546  0.24230418  0.86150077    -0.89800
H1918       H  0.08663672  0.26604431  0.85222750     0.17900
H1919       H  0.08396132  0.18002701  0.81753534     0.17900
N1920       N  0.12612227  0.20184710  0.80942380    -0.88800
H1921       H  0.04709114  0.26055959  0.86745704     0.35200
H1922       H  0.04144111  0.23167064  0.87755151     0.40300
H1923       H  0.12008657  0.19663855  0.79168901     0.40000
H1924       H  0.13151124  0.18569776  0.81875012     0.34900
C1925       C  0.05744130  0.44113741  0.65800780    -0.26900
C1926       C  0.05460153  0.42399431  0.63834305    -0.15000
C1927       C  0.07133220  0.42501231  0.61813666     0.35700
C1928       C  0.09032245  0.44308783  0.61813275    -0.26300
C1929       C  0.09345614  0.45989359  0.63804877    -0.15600
C1930       C  0.07652895  0.45909566  0.65807297     0.36800
N1931       N  0.07863407  0.47650953  0.67839794    -0.89800
H1932       H  0.04460125  0.44061174  0.67346144     0.17900
H1933       H  0.10320292  0.44358283  0.60270985     0.17900
N1934       N  0.06943247  0.40742376  0.59793231    -0.88800
H1935       H  0.06512300  0.47299465  0.69184353     0.35200
H1936       H  0.07488658  0.49430069  0.67149187     0.40300
H1937       H  0.07369312  0.38978033  0.60490836     0.40000
H1938       H  0.08274245  0.41116088  0.58434084     0.34900
C1939       C  0.92537594  0.34571890  0.55241982    -0.26900
C1940       C  0.91666220  0.36839166  0.54280402    -0.15000
C1941       C  0.92488293  0.39097199  0.55365774     0.35700
C1942       C  0.94109152  0.39049194  0.57402711    -0.26300
C1943       C  0.94943889  0.36782846  0.58396519    -0.15600
C1944       C  0.94152041  0.34522892  0.57286869     0.36800
N1945       N  0.94985657  0.32170086  0.58215038    -0.89800
H1946       H  0.91927627  0.32817047  0.54434350     0.17900
H1947       H  0.94708484  0.40805760  0.58214491     0.17900
N1948       N  0.91703958  0.41449856  0.54396945    -0.88800
H1949       H  0.95894902  0.31219615  0.56776274     0.35200
H1950       H  0.93426706  0.31127533  0.58715465     0.40300
H1951       H  0.93285492  0.42449661  0.53878258     0.40000
H1952       H  0.90816082  0.42444195  0.55818776     0.34900
C1953       C  0.06775091  0.31712602  0.66614296    -0.26900
C1954       C  0.05007754  0.31238758  0.64789492    -0.15000
C1955       C  0.05372157  0.29201385  0.63135006     0.35700
C1956       C  0.07538260  0.27696625  0.63347216    -0.26300
C1957       C  0.09370075  0.28260539  0.65128075    -0.15600
C1958       C  0.08956035  0.30342563  0.66746102     0.36800
N1959       N  0.10811566  0.31168994  0.68478973    -0.89800
H1960       H  0.06556180  0.33292718  0.67866647     0.17900
H1961       H  0.07838203  0.26167145  0.62058813     0.17900
N1962       N  0.03571119  0.28690148  0.61235851    -0.88800
H1963       H  0.10053207  0.31104749  0.70262711     0.35200
H1964       H  0.11237164  0.33030703  0.68099571     0.40300
H1965       H  0.01913459  0.28192888  0.62116755     0.40000
H1966       H  0.04116050  0.27150566  0.60167365     0.34900
C1967       C  0.81019747  0.36983716  0.70397804    -0.26900
C1968       C  0.81791425  0.34703283  0.71406542    -0.15000
C1969       C  0.80554518  0.32485391  0.70698925     0.35700
C1970       C  0.78693713  0.32569355  0.68888586    -0.26300
C1971       C  0.78089665  0.34818583  0.67731561    -0.15600
C1972       C  0.79185232  0.37054883  0.68563305     0.36800
N1973       N  0.78474968  0.39391129  0.67504157    -0.89800
H1974       H  0.81907030  0.38709691  0.70973037     0.17900
H1975       H  0.77858926  0.30838499  0.68253902     0.17900
N1976       N  0.81291109  0.30120703  0.71671898    -0.88800
H1977       H  0.77826241  0.40548596  0.68934749     0.35200
H1978       H  0.80058655  0.40218220  0.66748935     0.40300
H1979       H  0.81847790  0.28974225  0.70194306     0.40000
H1980       H  0.79742781  0.29303154  0.72506106     0.34900
C1981       C  0.83620091  0.33868588  0.81595141    -0.26900
C1982       C  0.83472430  0.35378810  0.79488915    -0.15000
C1983       C  0.81327757  0.36836521  0.79125218     0.35700
C1984       C  0.79314140  0.36649841  0.80772968    -0.26300
C1985       C  0.79382733  0.34996700  0.82770579    -0.15600
C1986       C  0.81587834  0.33658567  0.83229840     0.36800
N1987       N  0.81707380  0.31948241  0.85249495    -0.89800
H1988       H  0.85231345  0.32688616  0.81857547     0.17900
H1989       H  0.77621064  0.37664174  0.80383516     0.17900
N1990       N  0.81118357  0.38370726  0.76974101    -0.88800
H1991       H  0.83174077  0.32498092  0.86399289     0.35200
H1992       H  0.82142736  0.30187265  0.84520765     0.40300
H1993       H  0.80777481  0.40201846  0.77566690     0.40000
H1994       H  0.79578812  0.37763429  0.75953911     0.34900
C1995       C  0.90702073  0.38753161  0.71624533    -0.26900
C1996       C  0.90779948  0.36859343  0.73427917    -0.15000
C1997       C  0.93150892  0.35802615  0.73941278     0.35700
C1998       C  0.95100889  0.36116385  0.72236241    -0.26300
C1999       C  0.94826396  0.37628350  0.70141446    -0.15600
C2000       C  0.92655367  0.39095302  0.69941927     0.36800
N2001       N  0.92283627  0.40793076  0.67938326    -0.89800
H2002       H  0.89036623  0.39847978  0.71370315     0.17900
H2003       H  0.96819801  0.35104886  0.72514108     0.17900
N2004       N  0.93598689  0.34283981  0.76081742    -0.88800
H2005       H  0.92407413  0.39801659  0.66264041     0.35200
H2006       H  0.93681293  0.42144777  0.68000430     0.40300
H2007       H  0.92089495  0.34361536  0.77291604     0.40000
H2008       H  0.95074822  0.35090103  0.77062013     0.34900
C2009       C  0.82073379  0.15019422  0.69212094    -0.26900
C2010       C  0.84196797  0.16431669  0.68692104    -0.15000
C2011       C  0.84454918  0.17512360  0.66336066     0.35700
C2012       C  0.82467347  0.17394691  0.64644589    -0.26300
C2013       C  0.80239520  0.16198753  0.65277979    -0.15600
C2014       C  0.80092459  0.14882976  0.67521993     0.36800
N2015       N  0.77899215  0.13482114  0.68104966    -0.89800
H2016       H  0.81920284  0.14108143  0.70989603     0.17900
H2017       H  0.82601891  0.18385401  0.62905927     0.17900
N2018       N  0.86676864  0.18821394  0.65696579    -0.88800
H2019       H  0.78080680  0.12630338  0.69834369     0.35200
H2020       H  0.77744489  0.12044722  0.66791777     0.40300
H2021       H  0.86183813  0.20637298  0.65196834     0.40000
H2022       H  0.87433915  0.17950259  0.64128342     0.34900
C2023       C  0.80626257  0.16384050  0.76353106    -0.26900
C2024       C  0.83055345  0.16933775  0.77112777    -0.15000
C2025       C  0.83561197  0.17284057  0.79661942     0.35700
C2026       C  0.81680062  0.16865870  0.81400311    -0.26300
C2027       C  0.79270453  0.16207808  0.80652312    -0.15600
C2028       C  0.78731431  0.16028154  0.78103338     0.36800
N2029       N  0.76267123  0.15479370  0.77282288    -0.89800
H2030       H  0.80195805  0.16202440  0.74401105     0.17900
H2031       H  0.82079436  0.17147021  0.83351117     0.17900
N2032       N  0.85961861  0.18138380  0.80472896    -0.88800
H2033       H  0.76332239  0.13874049  0.76166392     0.35200
H2034       H  0.75677558  0.16969506  0.76193173     0.40300
H2035       H  0.86228900  0.19929701  0.79761753     0.40000
H2036       H  0.86021490  0.18314461  0.82402794     0.34900
C2037       C  0.92094081  0.13635964  0.75710750    -0.26900
C2038       C  0.91920803  0.15800120  0.74253580    -0.15000
C2039       C  0.94102331  0.17269363  0.74032785     0.35700
C2040       C  0.95971029  0.17064553  0.75834963    -0.26300
C2041       C  0.95837633  0.15238441  0.77682596    -0.15600
C2042       C  0.94007488  0.13364308  0.77455385     0.36800
N2043       N  0.94000249  0.11253701  0.79067898    -0.89800
H2044       H  0.90600465  0.12282164  0.75695143     0.17900
H2045       H  0.97499063  0.18379561  0.75819486     0.17900
N2046       N  0.94441747  0.19010762  0.72047917    -0.88800
H2047       H  0.94076082  0.09637253  0.77967171     0.35200
H2048       H  0.92319932  0.11242879  0.80036306     0.40300
H2049       H  0.93030702  0.18793501  0.70734042     0.40000
H2050       H  0.96075602  0.18512514  0.71120887     0.34900
C2051       C  0.85217283  0.24441435  0.75554117    -0.26900
C2052       C  0.86481593  0.23437713  0.73500373    -0.15000
C2053       C  0.87607102  0.25036105  0.71780911     0.35700
C2054       C  0.87506777  0.27618424  0.72176608    -0.26300
C2055       C  0.86377572  0.28635790  0.74307850    -0.15600
C2056       C  0.85184430  0.27033901  0.75988374     0.36800
N2057       N  0.84057918  0.28015898  0.78195627    -0.89800
H2058       H  0.84374057  0.23204853  0.76892701     0.17900
H2059       H  0.88355751  0.28842275  0.70831116     0.17900
N2060       N  0.88903357  0.24019097  0.69673237    -0.88800
H2061       H  0.84926415  0.27201869  0.79723156     0.35200
H2062       H  0.82193737  0.27476759  0.78204888     0.40300
H2063       H  0.87585425  0.23111566  0.68562001     0.40000
H2064       H  0.89660924  0.25440897  0.68602259     0.34900
C2065       C  0.84435830  0.31080038  0.26866631    -0.26900
C2066       C  0.83632912  0.33464695  0.27586288    -0.15000
C2067       C  0.83026865  0.33951932  0.30093587     0.35700
C2068       C  0.83255780  0.32034370  0.31824554    -0.26300
C2069       C  0.84145462  0.29668085  0.31128014    -0.15600
C2070       C  0.84736230  0.29190562  0.28613521     0.36800
N2071       N  0.85789288  0.26873567  0.27799661    -0.89800
H2072       H  0.84922951  0.30710885  0.24947553     0.17900
H2073       H  0.82756017  0.32394691  0.33741709     0.17900
N2074       N  0.82219395  0.36394000  0.30885174    -0.88800
H2075       H  0.84532604  0.25429253  0.28116635     0.35200
H2076       H  0.87399667  0.26563757  0.28822913     0.40300
H2077       H  0.80572632  0.36821353  0.29965675     0.40000
H2078       H  0.81814588  0.36417411  0.32781859     0.34900
C2079       C  0.86283955  0.31320414  0.16497979    -0.26900
C2080       C  0.84132961  0.30861851  0.15096101    -0.15000
C2081       C  0.82001784  0.32316446  0.15530466     0.35700
C2082       C  0.82004465  0.34121334  0.17426997    -0.26300
C2083       C  0.84102756  0.34493539  0.18921834    -0.15600
C2084       C  0.86281339  0.33114501  0.18433318     0.36800
N2085       N  0.88429379  0.33449182  0.19979447    -0.89800
H2086       H  0.87907284  0.30163469  0.16192204     0.17900
H2087       H  0.80316894  0.35157317  0.17811640     0.17900
N2088       N  0.79800200  0.31902177  0.14098743    -0.88800
H2089       H  0.89871706  0.32284057  0.19380867     0.35200
H2090       H  0.87960028  0.32875514  0.21767308     0.40300
H2091       H  0.79326882  0.33578674  0.13240203     0.40000
H2092       H  0.78363596  0.31431475  0.15312465     0.34900
C2093       C  0.68432815  0.30848610  0.20360839    -0.26900
C2094       C  0.66090168  0.31680397  0.21154898    -0.15000
C2095       C  0.63935106  0.30520014  0.20224581     0.35700
C2096       C  0.64151741  0.28777169  0.18282186    -0.26300
C2097       C  0.66487313  0.28129254  0.17320521    -0.15600
C2098       C  0.68647721  0.29075630  0.18451447     0.36800
N2099       N  0.71055406  0.28378028  0.17556902    -0.89800
H2100       H  0.70104717  0.31710662  0.21083397     0.17900
H2101       H  0.62493214  0.27984826  0.17454619     0.17900
N2102       N  0.61541338  0.31177756  0.21208578    -0.88800
H2103       H  0.72049750  0.27614598  0.19032349     0.35200
H2104       H  0.71978406  0.29990519  0.16984330     0.40300
H2105       H  0.61516504  0.30652205  0.23071548     0.40000
H2106       H  0.60144907  0.30151394  0.20320650     0.34900
C2107       C  0.63825497  0.32986631  0.29205437    -0.26900
C2108       C  0.65759735  0.34740341  0.29068301    -0.15000
C2109       C  0.67673092  0.34661926  0.30862230     0.35700
C2110       C  0.67750325  0.32684353  0.32554352    -0.26300
C2111       C  0.65935807  0.30805382  0.32543963    -0.15600
C2112       C  0.63867187  0.31040952  0.30942909     0.36800
N2113       N  0.61864638  0.29267087  0.30911591    -0.89800
H2114       H  0.62364997  0.33011547  0.27823254     0.17900
H2115       H  0.69316174  0.32544099  0.33807694     0.17900
N2116       N  0.69593082  0.36522255  0.30982970    -0.88800
H2117       H  0.60237526  0.30236306  0.31356273     0.35200
H2118       H  0.62084992  0.27920436  0.32280306     0.40300
H2119       H  0.69342084  0.37891802  0.29641341     0.40000
H2120       H  0.71291068  0.35646634  0.30625425     0.34900
C2121       C  0.76026892  0.37705866  0.21303198    -0.26900
C2122       C  0.77372066  0.36693197  0.23266731    -0.15000
C2123       C  0.76122854  0.35405583  0.25153436     0.35700
C2124       C  0.73525619  0.35340146  0.25163437    -0.26300
C2125       C  0.72156450  0.36524489  0.23303931    -0.15600
C2126       C  0.73434401  0.37576623  0.21269216     0.36800
N2127       N  0.72120516  0.38472688  0.19145598    -0.89800
H2128       H  0.76994841  0.38621036  0.19800349     0.17900
H2129       H  0.72590813  0.34443615  0.26688450     0.17900
N2130       N  0.77472526  0.34251880  0.27118311    -0.88800
H2131       H  0.72738703  0.37475611  0.17589254     0.35200
H2132       H  0.72581698  0.40351387  0.18900472     0.40300
H2133       H  0.76819515  0.34992922  0.28796959     0.40000
H2134       H  0.77053474  0.32347450  0.27094381     0.34900
C2135       C  0.62938782  0.43523927  0.04423825    -0.26900
C2136       C  0.64691080  0.41589079  0.04541749    -0.15000
C2137       C  0.66463638  0.41620433  0.06473087     0.35700
C2138       C  0.66462211  0.43601422  0.08213244    -0.26300
C2139       C  0.64707422  0.45541330  0.08097331    -0.15600
C2140       C  0.62931162  0.45501060  0.06160315     0.36800
N2141       N  0.61118593  0.47459089  0.05954100    -0.89800
H2142       H  0.61574049  0.43508145  0.02948128     0.17900
H2143       H  0.67806849  0.43595945  0.09706305     0.17900
N2144       N  0.68218419  0.39613791  0.06704998    -0.88800
H2145       H  0.59904987  0.47103740  0.04479367     0.35200
H2146       H  0.62067967  0.49099349  0.05516297     0.40300
H2147       H  0.67216833  0.37993853  0.07109881     0.40000
H2148       H  0.69403748  0.39930507  0.08208544     0.34900
C2149       C  0.64104586  0.43113069  0.17715488    -0.26900
C2150       C  0.63584121  0.45327331  0.18972192    -0.15000
C2151       C  0.63247891  0.45288933  0.21568619     0.35700
C2152       C  0.63527855  0.43003004  0.22863278    -0.26300
C2153       C  0.64210759  0.40780729  0.21606034    -0.15600
C2154       C  0.64503689  0.40891652  0.18978005     0.36800
N2155       N  0.65416269  0.38799711  0.17572806    -0.89800
H2156       H  0.64401097  0.43141556  0.15724661     0.17900
H2157       H  0.63380277  0.43005035  0.24863571     0.17900
N2158       N  0.62641386  0.47555776  0.22874379    -0.88800
H2159       H  0.64118912  0.38368815  0.16190610     0.35200
H2160       H  0.67075157  0.39315992  0.16712105     0.40300
H2161       H  0.64151626  0.48769220  0.22706368     0.40000
H2162       H  0.62422474  0.47209090  0.24766058     0.34900
C2163       C  0.87556408  0.46031371  0.41700892    -0.26900
C2164       C  0.85683340  0.45944445  0.39886549    -0.15000
C2165       C  0.83896460  0.44009802  0.39993425     0.35700
C2166       C  0.84048811  0.42209062  0.41873552    -0.26300
C2167       C  0.85945192  0.42268415  0.43660005    -0.15600
C2168       C  0.87722837  0.44212723  0.43569341     0.36800
N2169       N  0.89681002  0.44358332  0.45376015    -0.89800
H2170       H  0.88937023  0.47499664  0.41633219     0.17900
H2171       H  0.82678844  0.40729767  0.41927377     0.17900
N2172       N  0.81937821  0.43857637  0.38188126    -0.88800
H2173       H  0.90716630  0.45991668  0.45149346     0.35200
H2174       H  0.90900296  0.42880240  0.45019268     0.40300
H2175       H  0.80776504  0.45397807  0.38472315     0.40000
H2176       H  0.80844220  0.42273179  0.38472555     0.34900
C2177       C  0.87628876  0.44521559  0.27477198    -0.26900
C2178       C  0.85833416  0.46399147  0.27771687    -0.15000
C2179       C  0.83759560  0.46382565  0.26159541     0.35700
C2180       C  0.83387231  0.44356649  0.24547084    -0.26300
C2181       C  0.84929135  0.42230640  0.24616227    -0.15600
C2182       C  0.87252722  0.42491418  0.25852976     0.36800
N2183       N  0.89188919  0.40650481  0.25657697    -0.89800
H2184       H  0.89301071  0.44572332  0.28593295     0.17900
H2185       H  0.81765935  0.44397661  0.23371187     0.17900
N2186       N  0.81893744  0.48288244  0.26233048    -0.88800
H2187       H  0.90787218  0.41560635  0.25038135     0.35200
H2188       H  0.88781645  0.39330499  0.24286475     0.40300
H2189       H  0.82728001  0.50006952  0.25867915     0.40000
H2190       H  0.81093109  0.48332932  0.27999900     0.34900
C2191       C  0.75931541  0.57295003  0.32848427    -0.26900
C2192       C  0.76101168  0.59388798  0.34438433    -0.15000
C2193       C  0.77523266  0.59085881  0.36638499     0.35700
C2194       C  0.79274111  0.57136440  0.36771494    -0.26300
C2195       C  0.79487636  0.55350902  0.34857824    -0.15600
C2196       C  0.77650659  0.55321727  0.32981135     0.36800
N2197       N  0.77632955  0.53390226  0.31112842    -0.89800
H2198       H  0.74599297  0.57296796  0.31347608     0.17900
H2199       H  0.80532057  0.57078768  0.38337008     0.17900
N2200       N  0.77303706  0.60774118  0.38713820    -0.88800
H2201       H  0.76241048  0.53712009  0.29801372     0.35200
H2202       H  0.77182172  0.51717080  0.31986399     0.40300
H2203       H  0.76820890  0.59713433  0.40258398     0.40000
H2204       H  0.75815366  0.61994758  0.38448830     0.34900
C2205       C  0.71949058  0.59954401  0.12052822    -0.26900
C2206       C  0.73688528  0.59956945  0.14008361    -0.15000
C2207       C  0.74157905  0.57636719  0.15165311     0.35700
C2208       C  0.72515047  0.55618114  0.14794023    -0.26300
C2209       C  0.70475830  0.55808812  0.13181877    -0.15600
C2210       C  0.70309101  0.57953385  0.11671690     0.36800
N2211       N  0.68391108  0.58245904  0.09859314    -0.89800
H2212       H  0.71711842  0.61603554  0.10930796     0.17900
H2213       H  0.72788790  0.53923232  0.15842100     0.17900
N2214       N  0.76297260  0.57308331  0.16705942    -0.88800
H2215       H  0.66667712  0.58156509  0.10745868     0.35200
H2216       H  0.68529983  0.56789949  0.08564375     0.40300
H2217       H  0.77383429  0.55891187  0.15920407     0.40000
H2218       H  0.75701709  0.56691006  0.18442603     0.34900
C2219       C  0.74331043  0.66647730  0.22870454    -0.26900
C2220       C  0.75991744  0.65059467  0.21628918    -0.15000
C2221       C  0.77606916  0.63557121  0.23006140     0.35700
C2222       C  0.77418413  0.63526732  0.25593885    -0.26300
C2223       C  0.75564703  0.64902174  0.26849357    -0.15600
C2224       C  0.74069917  0.66550703  0.25464257     0.36800
N2225       N  0.72179651  0.68012515  0.26640954    -0.89800
H2226       H  0.73100953  0.67832506  0.21812407     0.17900
H2227       H  0.78682568  0.62345312  0.26613840     0.17900
N2228       N  0.79400711  0.62011619  0.21770882    -0.88800
H2229       H  0.70479602  0.67550919  0.25820008     0.35200
H2230       H  0.72535268  0.69891389  0.26274660     0.40300
H2231       H  0.79060148  0.60158153  0.22255184     0.40000
H2232       H  0.81161818  0.62501571  0.22431171     0.34900
C2233       C  0.67500364  0.70569509  0.16894183    -0.26900
C2234       C  0.68165331  0.72887535  0.15914120    -0.15000
C2235       C  0.70602766  0.73277752  0.15057402     0.35700
C2236       C  0.72329390  0.71310355  0.15158881    -0.26300
C2237       C  0.71623753  0.68951385  0.16014964    -0.15600
C2238       C  0.69202835  0.68594838  0.16959558     0.36800
N2239       N  0.68483192  0.66228049  0.17975137    -0.89800
H2240       H  0.65634820  0.70299593  0.17598021     0.17900
H2241       H  0.74194138  0.71587100  0.14469454     0.17900
N2242       N  0.71276623  0.75624093  0.13982811    -0.88800
H2243       H  0.66633626  0.66277569  0.18575032     0.35200
H2244       H  0.69567545  0.65917213  0.19544397     0.40300
H2245       H  0.70224492  0.75814061  0.12368522     0.40000
H2246       H  0.73130802  0.75590298  0.13412471     0.34900
C2247       C  0.68577627  0.67093170  0.31395340    -0.26900
C2248       C  0.70170710  0.66895693  0.33435814    -0.15000
C2249       C  0.69671511  0.68326767  0.35583311     0.35700
C2250       C  0.67701350  0.70066405  0.35585784    -0.26300
C2251       C  0.66230728  0.70397809  0.33462794    -0.15600
C2252       C  0.66636523  0.68844537  0.31382613     0.36800
N2253       N  0.65147709  0.69129275  0.29204833    -0.89800
H2254       H  0.68909104  0.65954516  0.29760906     0.17900
H2255       H  0.67435364  0.71280117  0.37181731     0.17900
N2256       N  0.71235347  0.68105604  0.37715090    -0.88800
H2257       H  0.64316152  0.67409017  0.28801162     0.35200
H2258       H  0.66319551  0.69581880  0.27730736     0.40300
H2259       H  0.71994173  0.69861441  0.38105074     0.40000
H2260       H  0.70120230  0.67599450  0.39216463     0.34900
C2261       C  0.65946386  0.77127713  0.26001649    -0.26900
C2262       C  0.64213093  0.75438544  0.26959975    -0.15000
C2263       C  0.62697472  0.74061618  0.25338172     0.35700
C2264       C  0.62850888  0.74470577  0.22795375    -0.26300
C2265       C  0.64389401  0.76351656  0.21823293    -0.15600
C2266       C  0.66022631  0.77626031  0.23444432     0.36800
N2267       N  0.67671463  0.79503784  0.22542513    -0.89800
H2268       H  0.67126394  0.78184667  0.27254667     0.17900
H2269       H  0.61689534  0.73346312  0.21586177     0.17900
N2270       N  0.60951980  0.72284874  0.26277574    -0.88800
H2271       H  0.67318610  0.81150773  0.23532370     0.35200
H2272       H  0.69486294  0.78953557  0.22958524     0.40300
H2273       H  0.61338525  0.70548859  0.25467350     0.40000
H2274       H  0.59175255  0.72826868  0.25713994     0.34900
C2275       C  0.44339201  0.87869496  0.41097470    -0.26900
C2276       C  0.44582409  0.85735443  0.39581117    -0.15000
C2277       C  0.42960722  0.83694809  0.40005609     0.35700
C2278       C  0.41106623  0.83881334  0.41836584    -0.26300
C2279       C  0.40844317  0.86038990  0.43320870    -0.15600
C2280       C  0.42520680  0.88031373  0.42958969     0.36800
N2281       N  0.42385984  0.90242781  0.44465096    -0.89800
H2282       H  0.45572449  0.89444913  0.40842336     0.17900
H2283       H  0.39863674  0.82315753  0.42101538     0.17900
N2284       N  0.43134901  0.81411281  0.38616390    -0.88800
H2285       H  0.42113774  0.91768219  0.43299986     0.35200
H2286       H  0.44094466  0.90474702  0.45357988     0.40300
H2287       H  0.44903311  0.80653046  0.38881289     0.40000
H2288       H  0.42882047  0.81799235  0.36738343     0.34900
C2289       C  0.54688566  0.77890303  0.33136270    -0.26900
C2290       C  0.54748294  0.79894578  0.34835273    -0.15000
C2291       C  0.56635663  0.79897033  0.36668687     0.35700
C2292       C  0.58587665  0.78174267  0.36505842    -0.26300
C2293       C  0.58790803  0.76496741  0.34489962    -0.15600
C2294       C  0.56615644  0.76117045  0.33036535     0.36800
N2295       N  0.56353346  0.74016718  0.31378338    -0.89800
H2296       H  0.53163779  0.77722322  0.31835437     0.17900
H2297       H  0.60066443  0.78307430  0.37858590     0.17900
N2298       N  0.56705410  0.81688466  0.38654353    -0.88800
H2299       H  0.54741486  0.73062497  0.31891902     0.35200
H2300       H  0.57797969  0.72748218  0.31646144     0.40300
H2301       H  0.55043517  0.81590570  0.39638697     0.40000
H2302       H  0.56922606  0.83478199  0.37913951     0.34900
C2303       C  0.32411823  0.69957865  0.17938093    -0.26900
C2304       C  0.31805629  0.68786667  0.20184567    -0.15000
C2305       C  0.29371373  0.67817117  0.20495240     0.35700
C2306       C  0.27671499  0.67971772  0.18521257    -0.26300
C2307       C  0.28374783  0.68975267  0.16232711    -0.15600
C2308       C  0.30743326  0.70029733  0.15964894     0.36800
N2309       N  0.31463669  0.71180160  0.13684995    -0.89800
H2310       H  0.34225979  0.70792476  0.17688744     0.17900
H2311       H  0.25830387  0.67184533  0.18734627     0.17900
N2312       N  0.28576889  0.66589135  0.22716128    -0.88800
H2313       H  0.33034100  0.70250239  0.13008405     0.35200
H2314       H  0.31967116  0.73027716  0.14071162     0.40300
H2315       H  0.30023442  0.66451103  0.23987502     0.40000
H2316       H  0.28102798  0.64757975  0.22240646     0.34900
C2317       C  0.32090606  0.65350952  0.28727360    -0.26900
C2318       C  0.34084336  0.67033874  0.28765745    -0.15000
C2319       C  0.34530656  0.68433794  0.30961271     0.35700
C2320       C  0.32714530  0.68490507  0.32831508    -0.26300
C2321       C  0.30553874  0.67045891  0.32635860    -0.15600
C2322       C  0.30338631  0.65308688  0.30657316     0.36800
N2323       N  0.28355501  0.63516723  0.30523530    -0.89800
H2324       H  0.31811365  0.64159319  0.27119807     0.17900
H2325       H  0.32933636  0.69769568  0.34384766     0.17900
N2326       N  0.36735194  0.69903018  0.31307708    -0.88800
H2327       H  0.27314154  0.63874276  0.28936554     0.35200
H2328       H  0.27165877  0.63666950  0.32050153     0.40300
H2329       H  0.37981222  0.69629616  0.29846577     0.40000
H2330       H  0.37632684  0.69243357  0.32887563     0.34900
C2331       C  0.29494898  0.86902426  0.26728346    -0.26900
C2332       C  0.31902427  0.86153473  0.27407907    -0.15000
C2333       C  0.32333227  0.85338329  0.29853240     0.35700
C2334       C  0.30410167  0.85397750  0.31584675    -0.26300
C2335       C  0.28022655  0.86181578  0.30930637    -0.15600
C2336       C  0.27550130  0.86924222  0.28471387     0.36800
N2337       N  0.25141344  0.87759197  0.27720765    -0.89800
H2338       H  0.29133564  0.87494838  0.24846152     0.17900
H2339       H  0.30782004  0.84800610  0.33461257     0.17900
N2340       N  0.34700385  0.84365788  0.30575933    -0.88800
H2341       H  0.24635940  0.89272425  0.28849527     0.35200
H2342       H  0.23871407  0.86316842  0.28015950     0.40300
H2343       H  0.35363561  0.85449123  0.32055483     0.40000
H2344       H  0.34438014  0.82547852  0.31216433     0.34900
C2345       C  0.31938403  0.88433747  0.18745737    -0.26900
C2346       C  0.33828044  0.86642493  0.18740430    -0.15000
C2347       C  0.34168070  0.85098249  0.16621323     0.35700
C2348       C  0.32364556  0.85114706  0.14744789    -0.26300
C2349       C  0.30336572  0.86746564  0.14871424    -0.15600
C2350       C  0.30221162  0.88532546  0.16809126     0.36800
N2351       N  0.28295494  0.90369502  0.16929829    -0.89800
H2352       H  0.31703501  0.89660165  0.20338587     0.17900
H2353       H  0.32477055  0.83755020  0.13248815     0.17900
N2354       N  0.36226891  0.83407418  0.16367691    -0.88800
H2355       H  0.26589698  0.89455587  0.17030170     0.35200
H2356       H  0.28342486  0.91401144  0.15296418     0.40300
H2357       H  0.37451830  0.83564127  0.17863826     0.40000
H2358       H  0.37226997  0.83933255  0.14799476     0.34900
C2359       C  0.43599082  0.88884652  0.27905882    -0.26900
C2360       C  0.45293479  0.86890746  0.27891409    -0.15000
C2361       C  0.45074995  0.85045007  0.26017328     0.35700
C2362       C  0.42920662  0.84975946  0.24546024    -0.26300
C2363       C  0.40960783  0.86676563  0.24949982    -0.15600
C2364       C  0.41481142  0.88830775  0.26388439     0.36800
N2365       N  0.39857586  0.90948015  0.26338209    -0.89800
H2366       H  0.43846629  0.90435107  0.29185450     0.17900
H2367       H  0.42706725  0.83482502  0.23198209     0.17900
N2368       N  0.46966427  0.83177244  0.25697204    -0.88800
H2369       H  0.40881568  0.92476783  0.25711885     0.35200
H2370       H  0.39293456  0.91347297  0.28153657     0.40300
H2371       H  0.48578084  0.84086946  0.25123147     0.40000
H2372       H  0.46488468  0.81928737  0.24269506     0.34900
C2373       C  0.35371376  0.78699001  0.26366443    -0.26900
C2374       C  0.34705403  0.79761610  0.24091988    -0.15000
C2375       C  0.33660900  0.78221169  0.22227629     0.35700
C2376       C  0.33637016  0.75630112  0.22546449    -0.26300
C2377       C  0.34622176  0.74563331  0.24698428    -0.15600
C2378       C  0.35353411  0.76123141  0.26678160     0.36800
N2379       N  0.36201613  0.75134891  0.28979101    -0.89800
H2380       H  0.36100478  0.79866330  0.27845694     0.17900
H2381       H  0.33052796  0.74441400  0.21020184     0.17900
N2382       N  0.32795049  0.79202300  0.19929507    -0.88800
H2383       H  0.37754050  0.74020048  0.28633901     0.35200
H2384       H  0.34775298  0.74032205  0.29699356     0.40300
H2385       H  0.34257903  0.80158084  0.19099885     0.40000
H2386       H  0.31355543  0.80453537  0.20295646     0.34900
C2387       C  0.43377880  0.67977462  0.04268133    -0.26900
C2388       C  0.41713280  0.65962333  0.04195388    -0.15000
C2389       C  0.42034602  0.63982470  0.05877465     0.35700
C2390       C  0.43980070  0.64085712  0.07619738    -0.26300
C2391       C  0.45633827  0.66115660  0.07720675    -0.15600
C2392       C  0.45360396  0.68057134  0.05973223     0.36800
N2393       N  0.47074407  0.70113699  0.05939352    -0.89800
H2394       H  0.43154408  0.69481714  0.02955790     0.17900
H2395       H  0.44175930  0.62584198  0.08938388     0.17900
N2396       N  0.40347135  0.61902959  0.05857460    -0.88800
H2397       H  0.46557945  0.71416516  0.04597536     0.35200
H2398       H  0.48796316  0.69409181  0.05384131     0.40300
H2399       H  0.38599050  0.62575964  0.06372235     0.40000
H2400       H  0.40855087  0.60593602  0.07193770     0.34900
C2401       C  0.58708581  0.57953288  0.16075893    -0.26900
C2402       C  0.58943988  0.56398690  0.13975700    -0.15000
C2403       C  0.57415996  0.56867923  0.11892384     0.35700
C2404       C  0.55698693  0.58849790  0.11975000    -0.26300
C2405       C  0.55505474  0.60443819  0.14050571    -0.15600
C2406       C  0.57027248  0.59972776  0.16134888     0.36800
N2407       N  0.56899147  0.61560613  0.18293211    -0.89800
H2408       H  0.59868637  0.57613046  0.17678193     0.17900
H2409       H  0.54550414  0.59194793  0.10365191     0.17900
N2410       N  0.57633500  0.55371393  0.09675512    -0.88800
H2411       H  0.58213356  0.61023533  0.19611696     0.35200
H2412       H  0.55158924  0.61294151  0.19107252     0.40300
H2413       H  0.59356346  0.55770470  0.08879415     0.40000
H2414       H  0.56300254  0.55890937  0.08367892     0.34900
C2415       C  0.57337572  0.76292869  0.15227459    -0.26900
C2416       C  0.59543430  0.75919355  0.13868494    -0.15000
C2417       C  0.59391852  0.74377762  0.11725341     0.35700
C2418       C  0.57369587  0.72724207  0.11453049    -0.26300
C2419       C  0.55453453  0.72681145  0.13221272    -0.15600
C2420       C  0.55341139  0.74628202  0.14992511     0.36800
N2421       N  0.53263363  0.74856889  0.16637153    -0.89800
H2422       H  0.57247109  0.77716511  0.16661320     0.17900
H2423       H  0.57379888  0.71362222  0.09956641     0.17900
N2424       N  0.61358399  0.74393836  0.09924150    -0.88800
H2425       H  0.52499091  0.76635493  0.16418094     0.35200
H2426       H  0.53917615  0.74723824  0.18456857     0.40300
H2427       H  0.61412761  0.76176889  0.09155028     0.40000
H2428       H  0.60969339  0.73147280  0.08472164     0.34900
C2429       C  0.43458786  0.69452597  0.18366604    -0.26900
C2430       C  0.45168073  0.67588561  0.18962248    -0.15000
C2431       C  0.44724684  0.66118491  0.21093300     0.35700
C2432       C  0.42543992  0.66525032  0.22528590    -0.26300
C2433       C  0.40770617  0.68325308  0.21836461    -0.15600
C2434       C  0.41281743  0.69800372  0.19717154     0.36800
N2435       N  0.39540510  0.71628441  0.18861433    -0.89800
H2436       H  0.43747296  0.70608468  0.16751737     0.17900
H2437       H  0.42201454  0.65367167  0.24123693     0.17900
N2438       N  0.46470113  0.64224626  0.21794993    -0.88800
H2439       H  0.39036472  0.71168171  0.17041726     0.35200
H2440       H  0.40426493  0.73365165  0.18839411     0.40300
H2441       H  0.46396494  0.62813175  0.20453396     0.40000
H2442       H  0.45931119  0.63402527  0.23467895     0.34900
C2443       C  0.16454931  0.68531296  0.16881444    -0.26900
C2444       C  0.16881012  0.66749029  0.18720075    -0.15000
C2445       C  0.18816652  0.65018098  0.18410270     0.35700
C2446       C  0.20438892  0.65232605  0.16380641    -0.26300
C2447       C  0.20161295  0.67175015  0.14674135    -0.15600
C2448       C  0.18068079  0.68765111  0.14854577     0.36800
N2449       N  0.17613825  0.70727338  0.13108104    -0.89800
H2450       H  0.14952102  0.69858511  0.17107400     0.17900
H2451       H  0.22040056  0.64012168  0.16257808     0.17900
N2452       N  0.19220007  0.63129839  0.20227469    -0.88800
H2453       H  0.15862757  0.70403512  0.12320248     0.35200
H2454       H  0.18866194  0.70647047  0.11641621     0.40300
H2455       H  0.19094368  0.61394760  0.19337094     0.40000
H2456       H  0.21033498  0.63319434  0.20891208     0.34900
C2457       C  0.17829062  0.68489270  0.29964095    -0.26900
C2458       C  0.18561255  0.67789422  0.27555474    -0.15000
C2459       C  0.21100012  0.67375862  0.27075086     0.35700
C2460       C  0.22837232  0.67616954  0.29010368    -0.26300
C2461       C  0.22077257  0.68204434  0.31437078    -0.15600
C2462       C  0.19547993  0.68712238  0.31890314     0.36800
N2463       N  0.18719428  0.69553940  0.34281042    -0.89800
H2464       H  0.15905324  0.68932083  0.30355528     0.17900
H2465       H  0.24780388  0.67302040  0.28617428     0.17900
N2466       N  0.21918744  0.66635534  0.24654549    -0.88800
H2467       H  0.17385728  0.68295143  0.34918154     0.35200
H2468       H  0.17854124  0.71286671  0.34070950     0.40300
H2469       H  0.22839170  0.64928240  0.24812126     0.40000
H2470       H  0.23206587  0.67956066  0.24039192     0.34900
C2471       C  0.20255622  0.83532651  0.20487396    -0.26900
C2472       C  0.19226005  0.85785012  0.21324766    -0.15000
C2473       C  0.20026149  0.88048579  0.20249903     0.35700
C2474       C  0.21632783  0.87964126  0.18210214    -0.26300
C2475       C  0.22471139  0.85679350  0.17217469    -0.15600
C2476       C  0.21785138  0.83438700  0.18412554     0.36800
N2477       N  0.22334000  0.81018165  0.17419711    -0.89800
H2478       H  0.19663202  0.81779812  0.21275660     0.17900
H2479       H  0.22157101  0.89701598  0.17338661     0.17900
N2480       N  0.19231458  0.90449733  0.21157388    -0.88800
H2481       H  0.24234614  0.80685059  0.17514011     0.35200
H2482       H  0.21701590  0.80930815  0.15592303     0.40300
H2483       H  0.18185913  0.90292991  0.22775227     0.40000
H2484       H  0.18099470  0.91251227  0.19802277     0.34900
C2485       C  0.16235481  0.83123605  0.30723217    -0.26900
C2486       C  0.15807531  0.85206318  0.29220434    -0.15000
C2487       C  0.17063630  0.87450866  0.29762369     0.35700
C2488       C  0.18875910  0.87518447  0.31640892    -0.26300
C2489       C  0.19482060  0.85360150  0.32964411    -0.15600
C2490       C  0.18065207  0.83177631  0.32591260     0.36800
N2491       N  0.18580360  0.80989094  0.34022123    -0.89800
H2492       H  0.15263685  0.81400064  0.30323427     0.17900
H2493       H  0.19961873  0.89201710  0.31913820     0.17900
N2494       N  0.16660562  0.89603380  0.28260100    -0.88800
H2495       H  0.17415519  0.79522832  0.33491424     0.35200
H2496       H  0.18166823  0.81410974  0.35876898     0.40300
H2497       H  0.18355624  0.90099949  0.27458912     0.40000
H2498       H  0.16099880  0.91068624  0.29424510     0.34900
C2499       C  0.15275124  0.74950041  0.20982823    -0.26900
C2500       C  0.15449165  0.73676842  0.23228460    -0.15000
C2501       C  0.15843531  0.75014791  0.25443741     0.35700
C2502       C  0.15870774  0.77626333  0.25414156    -0.26300
C2503       C  0.15420859  0.78918243  0.23213793    -0.15600
C2504       C  0.15247532  0.77560254  0.20947686     0.36800
N2505       N  0.15034676  0.78763993  0.18592830    -0.89800
H2506       H  0.15013860  0.73916577  0.19267818     0.17900
H2507       H  0.16067580  0.78636949  0.27145030     0.17900
N2508       N  0.16080619  0.73724270  0.27744512    -0.88800
H2509       H  0.16474892  0.80069089  0.18425063     0.35200
H2510       H  0.13344857  0.79684285  0.18480095     0.40300
H2511       H  0.14661022  0.74332115  0.28926496     0.40000
H2512       H  0.17777346  0.74227533  0.28544641     0.34900
C2513       C  0.08638754  0.83916358  0.04967816    -0.26900
C2514       C  0.08965848  0.86150579  0.03658889    -0.15000
C2515       C  0.07213160  0.88095116  0.03994372     0.35700
C2516       C  0.05305715  0.87829678  0.05751400    -0.26300
C2517       C  0.05046464  0.85645293  0.07148393    -0.15600
C2518       C  0.06678031  0.83625385  0.06675893     0.36800
N2519       N  0.06368189  0.81300688  0.07950589    -0.89800
H2520       H  0.09933443  0.82393984  0.04676657     0.17900
H2521       H  0.04030593  0.89366522  0.06055592     0.17900
N2522       N  0.07378992  0.90346291  0.02569473    -0.88800
H2523       H  0.07757732  0.80031017  0.07432020     0.35200
H2524       H  0.04690139  0.80524496  0.07359420     0.40300
H2525       H  0.05989070  0.91617322  0.03098919     0.40000
H2526       H  0.07023982  0.89872938  0.00725547     0.34900
C2527       C  0.08095003  0.86344151  0.17334285    -0.26900
C2528       C  0.05752056  0.86582174  0.18412160    -0.15000
C2529       C  0.05578364  0.86700694  0.21036378     0.35700
C2530       C  0.07753918  0.86553843  0.22499854    -0.26300
C2531       C  0.10102953  0.86184514  0.21398571    -0.15600
C2532       C  0.10219429  0.86031298  0.18761487     0.36800
N2533       N  0.12474527  0.85377066  0.17495879    -0.89800
H2534       H  0.08277265  0.86198339  0.15335182     0.17900
H2535       H  0.07576088  0.86571260  0.24498211     0.17900
N2536       N  0.03233787  0.86945904  0.22263024    -0.88800
H2537       H  0.12903360  0.86803570  0.16252955     0.35200
H2538       H  0.12169277  0.83741117  0.16472236     0.40300
H2539       H  0.02148504  0.85387742  0.21820632     0.40000
H2540       H  0.02350545  0.88541673  0.21594457     0.34900
C2541       C  0.06657046  0.63317990  0.40934481    -0.26900
C2542       C  0.06099320  0.65577029  0.39745056    -0.15000
C2543       C  0.07383134  0.67765898  0.40499846     0.35700
C2544       C  0.09167163  0.67641149  0.42378901    -0.26300
C2545       C  0.09738072  0.65383173  0.43550129    -0.15600
C2546       C  0.08444478  0.63195510  0.42833685     0.36800
N2547       N  0.08931096  0.60860250  0.44036198    -0.89800
H2548       H  0.05688220  0.61629435  0.40385547     0.17900
H2549       H  0.10137024  0.69336490  0.42907573     0.17900
N2550       N  0.06923175  0.70151877  0.39414459    -0.88800
H2551       H  0.07869080  0.59426859  0.43244067     0.35200
H2552       H  0.08340803  0.61037539  0.45876361     0.40300
H2553       H  0.05048749  0.70601066  0.39652768     0.40000
H2554       H  0.07342025  0.70053669  0.37524629     0.34900
C2555       C  0.96074897  0.57398668  0.34056459    -0.26900
C2556       C  0.95528947  0.59808178  0.33199307    -0.15000
C2557       C  0.93119197  0.60286872  0.32268545     0.35700
C2558       C  0.91315203  0.58402187  0.32301004    -0.26300
C2559       C  0.91830902  0.56015244  0.33236155    -0.15600
C2560       C  0.94270894  0.55489844  0.34054882     0.36800
N2561       N  0.94911170  0.53039988  0.34914459    -0.89800
H2562       H  0.97922154  0.57002962  0.34742995     0.17900
H2563       H  0.89465409  0.58840216  0.31646726     0.17900
N2564       N  0.92403452  0.62693972  0.31379037    -0.88800
H2565       H  0.96751985  0.52987494  0.35506527     0.35200
H2566       H  0.94788492  0.51816011  0.33391095     0.40300
H2567       H  0.93509625  0.63136307  0.29850772     0.40000
H2568       H  0.92691858  0.64014247  0.32786979     0.34900
C2569       C  0.07616009  0.67956153  0.24837348    -0.26900
C2570       C  0.09713719  0.66386846  0.24958147    -0.15000
C2571       C  0.09435405  0.64073015  0.26188598     0.35700
C2572       C  0.07352919  0.63680523  0.27724296    -0.26300
C2573       C  0.05472685  0.65488094  0.27944650    -0.15600
C2574       C  0.05521537  0.67540149  0.26326989     0.36800
N2575       N  0.03500763  0.69276376  0.26264062    -0.89800
H2576       H  0.07610694  0.69581313  0.23665884     0.17900
H2577       H  0.07267104  0.62016918  0.28849048     0.17900
N2578       N  0.11345323  0.62205193  0.26008757    -0.88800
H2579       H  0.02832662  0.69341300  0.24444995     0.35200
H2580       H  0.04185789  0.71044489  0.26730686     0.40300
H2581       H  0.11427964  0.61610113  0.24158780     0.40000
H2582       H  0.10882092  0.60641385  0.27057412     0.34900
C2583       C  0.82746127  0.70416907  0.13221205    -0.26900
C2584       C  0.84432888  0.70081495  0.15175963    -0.15000
C2585       C  0.84100366  0.68052027  0.16780150     0.35700
C2586       C  0.82015363  0.66501962  0.16526616    -0.26300
C2587       C  0.80221660  0.66953437  0.14706521    -0.15600
C2588       C  0.80633534  0.68867760  0.12970131     0.36800
N2589       N  0.78869334  0.69283377  0.11019871    -0.89800
H2590       H  0.82982435  0.71996202  0.12000621     0.17900
H2591       H  0.81705401  0.65045328  0.17874669     0.17900
N2592       N  0.85800062  0.67649328  0.18771042    -0.88800
H2593       H  0.79452295  0.70762678  0.09895722     0.35200
H2594       H  0.77204135  0.69837343  0.11829021     0.40300
H2595       H  0.86520051  0.65844587  0.18581660     0.40000
H2596       H  0.84800624  0.67733567  0.20432207     0.34900
C2597       C  0.94337088  0.76025473  0.16519484    -0.26900
C2598       C  0.92249559  0.75762730  0.14949856    -0.15000
C2599       C  0.92467401  0.76788378  0.12532256     0.35700
C2600       C  0.94348245  0.78539221  0.12034373    -0.26300
C2601       C  0.96093830  0.79214001  0.13858312    -0.15600
C2602       C  0.96200649  0.77786004  0.16032564     0.36800
N2603       N  0.98158272  0.78163403  0.17794341    -0.89800
H2604       H  0.94507594  0.74974949  0.18205726     0.17900
H2605       H  0.94355158  0.79472212  0.10259761     0.17900
N2606       N  0.90803953  0.76121076  0.10560358    -0.88800
H2607       H  0.99080296  0.76463039  0.18027978     0.35200
H2608       H  0.97360012  0.78670220  0.19492212     0.40300
H2609       H  0.88984511  0.76601316  0.11019183     0.40000
H2610       H  0.90895774  0.74190425  0.10293156     0.34900
C2611       C  0.80304274  0.72560785  0.34047838    -0.26900
C2612       C  0.82793476  0.71817086  0.33793356    -0.15000
C2613       C  0.83344732  0.69292188  0.33239579     0.35700
C2614       C  0.81410317  0.67563843  0.33052696    -0.26300
C2615       C  0.78926452  0.68280511  0.33384212    -0.15600
C2616       C  0.78366104  0.70807863  0.33856691     0.36800
N2617       N  0.75847497  0.71589865  0.34203726    -0.89800
H2618       H  0.79865837  0.74500850  0.34432830     0.17900
H2619       H  0.81847795  0.65639959  0.32594714     0.17900
N2620       N  0.85860297  0.68496156  0.32805398    -0.88800
H2621       H  0.75701508  0.72430170  0.35955185     0.35200
H2622       H  0.75446083  0.72940474  0.32875507     0.40300
H2623       H  0.86481918  0.69365688  0.31197575     0.40000
H2624       H  0.85943648  0.66569158  0.32464916     0.34900
C2625       C  0.91847184  0.72522876  0.37415956    -0.26900
C2626       C  0.91679192  0.74389008  0.35590275    -0.15000
C2627       C  0.93935137  0.75101646  0.34418292     0.35700
C2628       C  0.96003504  0.73504962  0.34535269    -0.26300
C2629       C  0.95933221  0.71292892  0.35916005    -0.15600
C2630       C  0.93922988  0.70932607  0.37555185     0.36800
N2631       N  0.93916474  0.68869883  0.39242973    -0.89800
H2632       H  0.90300617  0.72182874  0.38642346     0.17900
H2633       H  0.97624881  0.73934129  0.33428370     0.17900
N2634       N  0.94167615  0.77365497  0.33024261    -0.88800
H2635       H  0.92261952  0.68816738  0.40249420     0.35200
H2636       H  0.95339087  0.69182891  0.40531041     0.40300
H2637       H  0.92559234  0.78447997  0.33138675     0.40000
H2638       H  0.94453528  0.76891336  0.31163780     0.34900
C2639       C  0.87991781  0.72885922  0.26703381    -0.26900
C2640       C  0.86628319  0.74884180  0.27734774    -0.15000
C2641       C  0.85184646  0.76370296  0.26108753     0.35700
C2642       C  0.85322225  0.75956680  0.23540932    -0.26300
C2643       C  0.86894570  0.74125936  0.22531904    -0.15600
C2644       C  0.88195716  0.72535259  0.24148181     0.36800
N2645       N  0.89755453  0.70552431  0.23263830    -0.89800
H2646       H  0.89005137  0.71623706  0.27890924     0.17900
H2647       H  0.84272450  0.77155921  0.22320484     0.17900
N2648       N  0.83659106  0.78385600  0.26958861    -0.88800
H2649       H  0.91230212  0.71292645  0.22254410     0.35200
H2650       H  0.88715926  0.69393525  0.22103514     0.40300
H2651       H  0.84680081  0.79472103  0.28201655     0.40000
H2652       H  0.82101042  0.77657897  0.27840156     0.34900
C2653       C  0.84293674  0.18020233  0.17815280    -0.26900
C2654       C  0.84903762  0.18811790  0.20224268    -0.15000
C2655       C  0.85203802  0.21380742  0.20734439     0.35700
C2656       C  0.84915975  0.23108523  0.18799671    -0.26300
C2657       C  0.84364915  0.22292301  0.16383211    -0.15600
C2658       C  0.84024537  0.19727116  0.15900395     0.36800
N2659       N  0.83340524  0.18849335  0.13476429    -0.89800
H2660       H  0.83966853  0.16059825  0.17420975     0.17900
H2661       H  0.85170870  0.25085481  0.19161364     0.17900
N2662       N  0.85823228  0.22215730  0.23195882    -0.88800
H2663       H  0.84701517  0.17594519  0.12867589     0.35200
H2664       H  0.81668798  0.17870623  0.13622135     0.40300
H2665       H  0.85976625  0.24162328  0.23252281     0.40000
H2666       H  0.87578176  0.21508417  0.23618210     0.34900
C2667       C  0.87074667  0.19075326  0.29006504    -0.26900
C2668       C  0.85149356  0.17315176  0.28890395    -0.15000
C2669       C  0.83391521  0.17238259  0.30814107     0.35700
C2670       C  0.83386473  0.19118741  0.32648219    -0.26300
C2671       C  0.85173353  0.21020940  0.32631685    -0.15600
C2672       C  0.87133824  0.20901193  0.30903553     0.36800
N2673       N  0.89106331  0.22701572  0.31018246    -0.89800
H2674       H  0.88469669  0.19088105  0.27559073     0.17900
H2675       H  0.81917398  0.19159261  0.34020548     0.17900
N2676       N  0.81586009  0.15279595  0.30880747    -0.88800
H2677       H  0.90390624  0.22372635  0.29597376     0.35200
H2678       H  0.90049610  0.22437177  0.32688743     0.40300
H2679       H  0.79828042  0.16089174  0.30984574     0.40000
H2680       H  0.81853953  0.14292825  0.32523185     0.34900
C2681       C  0.67253989  0.16163915  0.16711342    -0.26900
C2682       C  0.65959939  0.16612674  0.18931298    -0.15000
C2683       C  0.64470431  0.18760968  0.19159267     0.35700
C2684       C  0.64466044  0.20529019  0.17245594    -0.26300
C2685       C  0.65932375  0.20186524  0.15118089    -0.15600
C2686       C  0.67278112  0.17951698  0.14806585     0.36800
N2687       N  0.68774008  0.17574556  0.12628160    -0.89800
H2688       H  0.68421296  0.14523001  0.16557584     0.17900
H2689       H  0.63458975  0.22265786  0.17491409     0.17900
N2690       N  0.63107196  0.19214395  0.21408872    -0.88800
H2691       H  0.69648296  0.15832524  0.12682789     0.35200
H2692       H  0.70185304  0.18912917  0.12651612     0.40300
H2693       H  0.61774577  0.17804318  0.21565622     0.40000
H2694       H  0.62143571  0.20903693  0.21311626     0.34900
C2695       C  0.66903844  0.20655559  0.26687577    -0.26900
C2696       C  0.67853279  0.18310493  0.27326630    -0.15000
C2697       C  0.68859501  0.17966743  0.29710302     0.35700
C2698       C  0.68705802  0.19890703  0.31471908    -0.26300
C2699       C  0.67596862  0.22183571  0.30894461    -0.15600
C2700       C  0.66750691  0.22590136  0.28447707     0.36800
N2701       N  0.65599319  0.24880993  0.27730835    -0.89800
H2702       H  0.66194292  0.20961818  0.24838859     0.17900
H2703       H  0.69445097  0.19584143  0.33313925     0.17900
N2704       N  0.70075206  0.15677862  0.30336764    -0.88800
H2705       H  0.66882476  0.26330133  0.27896767     0.35200
H2706       H  0.64111859  0.25227669  0.28927120     0.40300
H2707       H  0.71900616  0.16093563  0.30852834     0.40000
H2708       H  0.69170053  0.14920235  0.31871839     0.34900
C2709       C  0.74554314  0.16700564  0.24351735    -0.26900
C2710       C  0.73495090  0.15110862  0.22567239    -0.15000
C2711       C  0.75042157  0.13876933  0.20846037     0.35700
C2712       C  0.77610666  0.14017011  0.21129244    -0.26300
C2713       C  0.78685167  0.15312151  0.23145213    -0.15600
C2714       C  0.77141445  0.16811536  0.24658810     0.36800
N2715       N  0.78156941  0.18350454  0.26584197    -0.89800
H2716       H  0.73370241  0.17709295  0.25640237     0.17900
H2717       H  0.78769633  0.13007017  0.19820158     0.17900
N2718       N  0.74054782  0.12450901  0.18813302    -0.88800
H2719       H  0.77696101  0.20200398  0.26186821     0.35200
H2720       H  0.77265100  0.17892321  0.28238572     0.40300
H2721       H  0.72893384  0.13612718  0.17785017     0.40000
H2722       H  0.72999123  0.10975615  0.19499236     0.34900
C2723       C  0.91378290  0.93750738  0.11195023    -0.26900
C2724       C  0.91721268  0.95824108  0.12772040    -0.15000
C2725       C  0.93784455  0.95844158  0.14389623     0.35700
C2726       C  0.95397723  0.93784264  0.14456983    -0.26300
C2727       C  0.95038618  0.91697693  0.12903012    -0.15600
C2728       C  0.93019667  0.91709353  0.11230258     0.36800
N2729       N  0.92615340  0.89653917  0.09563007    -0.89800
H2730       H  0.89811923  0.93695774  0.09935744     0.17900
H2731       H  0.96954847  0.93833468  0.15727906     0.17900
N2732       N  0.94264940  0.97953751  0.15967330    -0.88800
H2733       H  0.92652531  0.90336361  0.07751451     0.35200
H2734       H  0.90843888  0.88936107  0.09896430     0.40300
H2735       H  0.96031353  0.98636829  0.15545013     0.40000
H2736       H  0.94283348  0.97343436  0.17804243     0.34900
C2737       C  0.87736266  0.06807029  0.05968668    -0.26900
C2738       C  0.85582734  0.06294894  0.07347688    -0.15000
C2739       C  0.83390315  0.07648770  0.06810220     0.35700
C2740       C  0.83430323  0.09502444  0.04962028    -0.26300
C2741       C  0.85601640  0.10038695  0.03621720    -0.15600
C2742       C  0.87770577  0.08655210  0.04135918     0.36800
N2743       N  0.90046166  0.09167902  0.02862473    -0.89800
H2744       H  0.89438557  0.05803053  0.06348569     0.17900
H2745       H  0.81753226  0.10544834  0.04575824     0.17900
N2746       N  0.81142780  0.07185118  0.08167094    -0.88800
H2747       H  0.90638689  0.07522457  0.01990342     0.35200
H2748       H  0.91380328  0.09674945  0.04182402     0.40300
H2749       H  0.80534649  0.05390875  0.07686012     0.40000
H2750       H  0.79740886  0.08410942  0.07619907     0.34900
C2751       C  0.85110133  0.05854190  0.21283749    -0.26900
C2752       C  0.86877412  0.05991720  0.19375255    -0.15000
C2753       C  0.88736380  0.07845256  0.19539404     0.35700
C2754       C  0.88473728  0.09792157  0.21290163    -0.26300
C2755       C  0.86370418  0.09945886  0.22840074    -0.15600
C2756       C  0.84936434  0.07736584  0.23102916     0.36800
N2757       N  0.83201482  0.07416091  0.25102169    -0.89800
H2758       H  0.83810199  0.04311047  0.21329293     0.17900
H2759       H  0.89805551  0.11304957  0.21287849     0.17900
N2760       N  0.90784045  0.07847897  0.17830723    -0.88800
H2761       H  0.83395573  0.08856251  0.26404229     0.35200
H2762       H  0.83703020  0.05788542  0.26036173     0.40300
H2763       H  0.91865365  0.06280376  0.18207748     0.40000
H2764       H  0.91925450  0.09403182  0.18143109     0.34900
C2765       C  0.63140831  0.08752960  0.42505912    -0.26900
C2766       C  0.65429303  0.09723920  0.43308417    -0.15000
C2767       C  0.67639554  0.08765954  0.42247513     0.35700
C2768       C  0.67502403  0.06817974  0.40479568    -0.26300
C2769       C  0.65210407  0.05833032  0.39695921    -0.15600
C2770       C  0.63001396  0.06828324  0.40721362     0.36800
N2771       N  0.60617638  0.05889724  0.39959569    -0.89800
H2772       H  0.61436560  0.09485612  0.43292017     0.17900
H2773       H  0.69203016  0.06089809  0.39681049     0.17900
N2774       N  0.70014938  0.09772036  0.42947382    -0.88800
H2775       H  0.59185655  0.06899412  0.40808686     0.35200
H2776       H  0.60468758  0.04059639  0.40602705     0.40300
H2777       H  0.70092757  0.11606633  0.42302344     0.40000
H2778       H  0.71449129  0.08806355  0.42053142     0.34900
C2779       C  0.58227453  0.94364466  0.36108205    -0.26900
C2780       C  0.59381498  0.95036037  0.33876551    -0.15000
C2781       C  0.58545329  0.93914730  0.31648406     0.35700
C2782       C  0.56589116  0.92169561  0.31697563    -0.26300
C2783       C  0.55436524  0.91494520  0.33936117    -0.15600
C2784       C  0.56290259  0.92625201  0.36169444     0.36800
N2785       N  0.55264084  0.92037319  0.38544884    -0.89800
H2786       H  0.58841445  0.95191508  0.37843453     0.17900
H2787       H  0.55981120  0.91329468  0.29966575     0.17900
N2788       N  0.59678798  0.94523686  0.29328964    -0.88800
H2789       H  0.55487843  0.90127747  0.38861925     0.35200
H2790       H  0.53378445  0.92495068  0.38553019     0.40300
H2791       H  0.58302931  0.95218889  0.28156068     0.40000
H2792       H  0.60370504  0.92875928  0.28536412     0.34900
C2793       C  0.63724494  0.06919741  0.27821264    -0.26900
C2794       C  0.65600332  0.05158609  0.28273742    -0.15000
C2795       C  0.67785385  0.05272550  0.26845904     0.35700
C2796       C  0.68184442  0.07283952  0.25250101    -0.26300
C2797       C  0.66489882  0.09288510  0.25091206    -0.15600
C2798       C  0.64115364  0.08932763  0.26204604     0.36800
N2799       N  0.62057997  0.10558104  0.25728794    -0.89800
H2800       H  0.61965053  0.06780325  0.28784491     0.17900
H2801       H  0.69882574  0.07249304  0.24200646     0.17900
N2802       N  0.69652968  0.03379673  0.27048237    -0.88800
H2803       H  0.61704168  0.10542480  0.23825414     0.35200
H2804       H  0.62464810  0.12377627  0.26294473     0.40300
H2805       H  0.71307232  0.04230961  0.27616103     0.40000
H2806       H  0.69938143  0.02594718  0.25289839     0.34900
C2807       C  0.69336012  0.83205657  0.33034124    -0.26900
C2808       C  0.71704899  0.82430644  0.33794685    -0.15000
C2809       C  0.72139990  0.79874820  0.34211262     0.35700
C2810       C  0.70173028  0.78166004  0.34002394    -0.26300
C2811       C  0.67788151  0.78976243  0.33360245    -0.15600
C2812       C  0.67385200  0.81504280  0.32775758     0.36800
N2813       N  0.65011838  0.82322844  0.31868467    -0.89800
H2814       H  0.69015492  0.85145483  0.32581478     0.17900
H2815       H  0.70499099  0.76209871  0.34387009     0.17900
N2816       N  0.74552541  0.79008862  0.34893566    -0.88800
H2817       H  0.65029235  0.84239526  0.31521419     0.35200
H2818       H  0.64704083  0.81432404  0.30162396     0.40300
H2819       H  0.74384067  0.78056289  0.36569744     0.40000
H2820       H  0.75140208  0.77724425  0.33546634     0.34900
C2821       C  0.82467186  0.84273351  0.33040956    -0.26900
C2822       C  0.80468673  0.83949270  0.34671698    -0.15000
C2823       C  0.80552905  0.82017146  0.36411637     0.35700
C2824       C  0.82451046  0.80227696  0.36269527    -0.26300
C2825       C  0.84321500  0.80400978  0.34470367    -0.15600
C2826       C  0.84431561  0.82547693  0.32955382     0.36800
N2827       N  0.86493765  0.83044935  0.31338573    -0.89800
H2828       H  0.82442724  0.85809704  0.31746145     0.17900
H2829       H  0.82397277  0.78631413  0.37490616     0.17900
N2830       N  0.78688065  0.81845781  0.38293721    -0.88800
H2831       H  0.85828950  0.83232785  0.29531144     0.35200
H2832       H  0.87775399  0.81582077  0.31337575     0.40300
H2833       H  0.79571078  0.82026127  0.40011606     0.40000
H2834       H  0.77926440  0.80056168  0.38215656     0.34900
C2835       C  0.74810902  0.93366659  0.33518528    -0.26900
C2836       C  0.74413727  0.91345145  0.35128901    -0.15000
C2837       C  0.72798382  0.91764261  0.37173068     0.35700
C2838       C  0.71141920  0.93786276  0.37121030    -0.26300
C2839       C  0.71161887  0.95484528  0.35151941    -0.15600
C2840       C  0.73149885  0.95388563  0.33446809     0.36800
N2841       N  0.73414508  0.97271859  0.31581541    -0.89800
H2842       H  0.76273363  0.93255707  0.32144612     0.17900
H2843       H  0.69765265  0.93962508  0.38577406     0.17900
N2844       N  0.72822879  0.90212312  0.39333777    -0.88800
H2845       H  0.74941777  0.96893348  0.30445873     0.35200
H2846       H  0.73790440  0.98963289  0.32492678     0.40300
H2847       H  0.74224958  0.88871425  0.39222638     0.40000
H2848       H  0.71111424  0.89300410  0.39463986     0.34900
C2849       C  0.69362484  0.85061048  0.17035111    -0.26900
C2850       C  0.71347306  0.84710952  0.15385993    -0.15000
C2851       C  0.71108063  0.82964414  0.13420557     0.35700
C2852       C  0.69021771  0.81398969  0.13344171    -0.26300
C2853       C  0.67177710  0.81549082  0.15171802    -0.15600
C2854       C  0.67260334  0.83517926  0.16933494     0.36800
N2855       N  0.65268136  0.83988521  0.18649763    -0.89800
H2856       H  0.69511247  0.86445836  0.18505095     0.17900
H2857       H  0.68915074  0.79954880  0.11932309     0.17900
N2858       N  0.72994764  0.82634750  0.11559937    -0.88800
H2859       H  0.65949365  0.83772793  0.20441610     0.35200
H2860       H  0.63814188  0.82715767  0.18410918     0.40300
H2861       H  0.74433656  0.83920425  0.11788355     0.40000
H2862       H  0.72186401  0.83027314  0.09844038     0.34900
C2863       C  0.82227427  0.82798604  0.17605436    -0.26900
C2864       C  0.79870661  0.82302878  0.16615859    -0.15000
C2865       C  0.79306407  0.79875088  0.15779882     0.35700
C2866       C  0.81159288  0.78019326  0.15816699    -0.26300
C2867       C  0.83552198  0.78565070  0.16709499    -0.15600
C2868       C  0.84046312  0.80964892  0.17707408     0.36800
N2869       N  0.86330988  0.81580992  0.18934375    -0.89800
H2870       H  0.82661716  0.84639868  0.18331256     0.17900
H2871       H  0.80744075  0.76167316  0.15104798     0.17900
N2872       N  0.76884785  0.79306965  0.14845974    -0.88800
H2873       H  0.87783200  0.81611089  0.17654594     0.35200
H2874       H  0.86701412  0.80247470  0.20282628     0.40300
H2875       H  0.76151459  0.77872663  0.15919168     0.40000
H2876       H  0.77073421  0.78643323  0.13023358     0.34900
C2877       C  0.77450151  0.93041016  0.14166896    -0.26900
C2878       C  0.78366331  0.91341230  0.15927146    -0.15000
C2879       C  0.80647732  0.91905988  0.17123639     0.35700
C2880       C  0.81937769  0.94075173  0.16551189    -0.26300
C2881       C  0.81078439  0.95729777  0.14754525    -0.15600
C2882       C  0.78794883  0.95209755  0.13553259     0.36800
N2883       N  0.77786081  0.96846996  0.11727814    -0.89800
H2884       H  0.75726996  0.92676121  0.13207377     0.17900
H2885       H  0.83691154  0.94414917  0.17481273     0.17900
N2886       N  0.81708497  0.90238262  0.18902501    -0.88800
H2887       H  0.79018786  0.96931024  0.10235250     0.35200
H2888       H  0.77618084  0.98629296  0.12516359     0.40300
H2889       H  0.81934807  0.91211935  0.20576439     0.40000
H2890       H  0.83463171  0.89692458  0.18270835     0.34900
C2891       C  0.73519590  0.85953582  0.23873836    -0.26900
C2892       C  0.75768955  0.85589346  0.22628683    -0.15000
C2893       C  0.77937325  0.85055926  0.23985643     0.35700
C2894       C  0.77852026  0.85011042  0.26581944    -0.26300
C2895       C  0.75643739  0.85570532  0.27827701    -0.15600
C2896       C  0.73445769  0.85967674  0.26470570     0.36800
N2897       N  0.71162841  0.86493530  0.27733368    -0.89800
H2898       H  0.71854574  0.86388983  0.22836198     0.17900
H2899       H  0.79547570  0.84722830  0.27623371     0.17900
N2900       N  0.80254878  0.84704583  0.22735672    -0.88800
H2901       H  0.69857707  0.85154941  0.27183658     0.35200
H2902       H  0.70530165  0.88241237  0.27159557     0.40300
H2903       H  0.80955670  0.82956496  0.23224435     0.40000
H2904       H  0.81494727  0.86066305  0.23376796     0.34900
loop_ 
_geom_bond_atom_site_label_1 
_geom_bond_atom_site_label_2 
_geom_bond_distance 
_geom_bond_site_symmetry_2 
_ccdc_geom_bond_type 
C1            C2   1.534       .  S
C1            C7   1.538       .  S
C1            C5   1.546       .  S
C1         C2878   1.531       .  S
C2            H9   1.087       .  S
C2            C3   1.361       .  D
C3            C4   1.535       .  S
C3         C2864   1.482       .  S
C4            C8   1.530       .  S
C4            C6   1.544       .  S
C4           H10   1.111       .  S
C5           H11   1.083       .  S
C5            C6   1.374       .  D
C6         C2850   1.478       .  S
C7           H12   1.087       .  S
C7            C8   1.358       .  D
C8         C2892   1.471       .  S
C13          C14   1.542       .  S
C13          C19   1.546       .  S
C13          C17   1.540       .  S
C13        C2836   1.543       .  S
C14          H21   1.084       .  S
C14          C15   1.367       .  D
C15          C16   1.534       .  S
C15        C2808   1.484       .  S
C16          C20   1.526       .  S
C16          C18   1.540       .  S
C16          H22   1.111       .  S
C17          H23   1.085       .  S
C17          C18   1.371       .  D
C18        C2822   1.478       .  S
C19          H24   1.085       .  S
C19          C20   1.357       .  D
C20        C2895   1.471       .  S
In25         O27   2.252       .  S
In25         O28   2.260       .  S
In25         O36   2.252   1_545  S
In25         O30   2.274   1_545  S
In25         O32   2.276       .  S
In25         O33   2.259   1_545  S
In25         O34   2.233       .  S
In25         O37   2.250   1_545  S
C26          O32   1.262       .  A
C26          O34   1.259       .  A
C26        C2794   1.491       .  S
O27          C35   1.259       .  A
O28          C35   1.260       .  A
C29          O36   1.259       .  A
C29          O30   1.260       .  A
C29        C2780   1.492       .  S
C31          O33   1.262       .  A
C31          O37   1.261       .  A
C31        C2839   1.486       .  S
C35        C2769   1.490       .  S
In38         O40   2.265   1_545  S
In38         O41   2.248   1_545  S
In38         O49   2.256       .  S
In38         O43   2.276       .  S
In38         O45   2.278   1_545  S
In38         O46   2.255       .  S
In38         O47   2.211   1_545  S
In38         O50   2.258       .  S
C39          O45   1.264       .  A
C39          O47   1.260       .  A
C39        C2881   1.484       .  S
O40          C48   1.261       .  A
O41          C48   1.259       .  A
C42          O49   1.260       .  A
C42          O43   1.261       .  A
C42        C2738   1.496       .  S
C44          O46   1.260       .  A
C44          O50   1.261       .  A
C44        C2752   1.488       .  S
C48        C2724   1.490       .  S
C51          C52   1.538       .  S
C51          C57   1.551       .  S
C51          C55   1.548       .  S
C51        C2797   1.550       .  S
C52          H59   1.086       .  S
C52          C53   1.363       .  D
C53          C54   1.530       .  S
C53        C2696   1.481       .  S
C54          C58   1.525       .  S
C54          C56   1.536       .  S
C54          H60   1.112       .  S
C55          H61   1.085       .  S
C55          C56   1.373       .  D
C56        C2682   1.481       .  S
C57          H62   1.080       .  S
C57          C58   1.363       .  D
C58        C2710   1.475       .  S
C63          C64   1.546       .  S
C63          C69   1.542       .  S
C63          C67   1.538       .  S
C63        C2755   1.546       .  S
C64          H71   1.085       .  S
C64          C65   1.364       .  D
C65          C66   1.530       .  S
C65        C2654   1.480       .  S
C66          C70   1.536       .  S
C66          C68   1.544       .  S
C66          H72   1.108       .  S
C67          H73   1.085       .  S
C67          C68   1.371       .  D
C68        C2668   1.481       .  S
C69          H74   1.084       .  S
C69          C70   1.364       .  D
C70        C2713   1.492       .  S
C75          C76   1.543       .  S
C75          C81   1.548       .  S
C75          C79   1.538       .  S
C75        C2626   1.550       .  S
C76          H83   1.084       .  S
C76          C77   1.369       .  D
C77          C78   1.537       .  S
C77        C2640   1.502       .  S
C78          C82   1.528       .  S
C78          C80   1.544       .  S
C78          H84   1.103       .  S
C79          H85   1.085       .  S
C79          C80   1.370       .  D
C80        C2825   1.481       .  S
C81          H86   1.082       .  S
C81          C82   1.362       .  D
C82        C2612   1.484       .  S
C87          C88   1.550       .  S
C87          C93   1.537       .  S
C87          C91   1.550       .  S
C87        C2598   1.551       .  S
C88          H95   1.080       .  S
C88          C89   1.361       .  D
C89          C90   1.530       .  S
C89        C2643   1.483       .  S
C90          C94   1.531       .  S
C90          C92   1.539       .  S
C90          H96   1.112       .  S
C91          H97   1.085       .  S
C91          C92   1.377       .  D
C92        C2584   1.486       .  S
C93          H98   1.085       .  S
C93          C94   1.360       .  D
C94        C2867   1.478       .  S
In99        O101   2.261   1_455  S
In99        O102   2.263   1_455  S
In99        O110   2.257   1_455  S
In99        O104   2.262   1_455  S
In99        O106   2.269       .  S
In99        O107   2.254       .  S
In99        O108   2.256       .  S
In99        O111   2.254       .  S
C100        O106   1.259       .  A
C100        O108   1.259       .  A
C100       C2573   1.491       .  S
O101        C109   1.261       .  A
O102        C109   1.261       .  A
C103        O110   1.260       .  A
C103        O104   1.260       .  A
C103       C2556   1.490       .  S
C105        O107   1.259       .  A
C105        O111   1.260       .  A
C105       C2542   1.490       .  S
C109       C2629   1.493       .  S
In112       O114   2.256   1_455  S
In112       O115   2.272   1_455  S
In112       O123   2.261   1_455  S
In112       O117   2.269   1_455  S
In112       O119   2.291       .  S
In112       O120   2.261       .  S
In112       O121   2.228       .  S
In112       O124   2.249       .  S
C113        O119   1.263       .  A
C113        O121   1.260       .  A
C113       C2528   1.489       .  S
O114        C122   1.260       .  A
O115        C122   1.259       .  A
C116        O123   1.256       .  A
C116        O117   1.258       .  A
C116       C2727   1.490       .  S
C118        O120   1.262       .  A
C118        O124   1.262       .  A
C118       C2517   1.491       .  S
C122       C2601   1.490       .  S
C125        C126   1.532       .  S
C125        C131   1.538       .  S
C125        C129   1.553       .  S
C125       C2531   1.536       .  S
C126        H133   1.086       .  S
C126        C127   1.353       .  D
C127        C128   1.531       .  S
C127       C2503   1.480       .  S
C128        C132   1.535       .  S
C128        C130   1.540       .  S
C128        H134   1.112       .  S
C129        H135   1.084       .  S
C129        C130   1.383       .  D
C130       C2486   1.485       .  S
C131        H136   1.085       .  S
C131        C132   1.362       .  D
C132       C2472   1.480       .  S
C137        C138   1.548       .  S
C137        C143   1.539       .  S
C137        C141   1.541       .  S
C137       C2570   1.543       .  S
C138        H145   1.083       .  S
C138        C139   1.361       .  D
C139        C140   1.526       .  S
C139       C2500   1.470       .  S
C140        C144   1.537       .  S
C140        C142   1.540       .  S
C140        H146   1.110       .  S
C141        H147   1.085       .  S
C141        C142   1.371       .  D
C142       C2444   1.478       .  S
C143        H148   1.086       .  S
C143        C144   1.365       .  D
C144       C2458   1.490       .  S
In149       O151   2.249       .  S
In149       O152   2.269       .  S
In149       O160   2.259       .  S
In149       O154   2.272       .  S
In149       O156   2.294       .  S
In149       O157   2.257       .  S
In149       O158   2.225       .  S
In149       O161   2.259       .  S
C150        O156   1.262       .  A
C150        O158   1.259       .  A
C150       C2430   1.494       .  S
O151        C159   1.260       .  A
O152        C159   1.261       .  A
C153        O160   1.260       .  A
C153        O154   1.261       .  A
C153       C2405   1.496       .  S
C155        O157   1.261       .  A
C155        O161   1.262       .  A
C155       C2391   1.494       .  S
C159       C2419   1.488       .  S
C162        C163   1.544       .  S
C162        C168   1.544       .  S
C162        C166   1.531       .  S
C162       C2363   1.538       .  S
C163        H170   1.085       .  S
C163        C164   1.364       .  D
C164        C165   1.530       .  S
C164       C2374   1.482       .  S
C165        C169   1.533       .  S
C165        C167   1.545       .  S
C165        H171   1.109       .  S
C166        H172   1.086       .  S
C166        C167   1.367       .  D
C167       C2346   1.475       .  S
C168        H173   1.083       .  S
C168        C169   1.366       .  D
C169       C2332   1.487       .  S
C174        C175   1.538       .  S
C174        C180   1.533       .  S
C174        C178   1.549       .  S
C174       C2433   1.539       .  S
C175        H182   1.087       .  S
C175        C176   1.358       .  D
C176        C177   1.527       .  S
C176       C2377   1.472       .  S
C177        C181   1.538       .  S
C177        C179   1.551       .  S
C177        H183   1.111       .  S
C178        H184   1.084       .  S
C178        C179   1.381       .  D
C179       C2318   1.489       .  S
C180        H185   1.087       .  S
C180        C181   1.362       .  D
C181       C2304   1.491       .  S
In186       O188   2.254       .  S
In186       O189   2.255       .  S
In186       O197   2.249       .  S
In186       O191   2.274       .  S
In186       O193   2.243       .  S
In186       O194   2.276       .  S
In186       O195   2.275       .  S
In186       O198   2.238       .  S
C187        O193   1.258       .  A
C187        O195   1.262       .  A
C187       C2290   1.495       .  S
O188        C196   1.261       .  A
O189        C196   1.261       .  A
C190        O197   1.259       .  A
C190        O191   1.261       .  A
C190       C2276   1.495       .  S
C192        O194   1.262       .  A
C192        O198   1.257       .  A
C192       C2783   1.493       .  S
C196       C2360   1.487       .  S
C199        C200   1.542       .  S
C199        C205   1.546       .  S
C199        C203   1.551       .  S
C199       C2293   1.550       .  S
C200        H207   1.085       .  S
C200        C201   1.358       .  D
C201        C202   1.525       .  S
C201       C2262   1.472       .  S
C202        C206   1.527       .  S
C202        C204   1.536       .  S
C202        H208   1.112       .  S
C203        H209   1.085       .  S
C203        C204   1.378       .  D
C204       C2251   1.486       .  S
C205        H210   1.084       .  S
C205        C206   1.362       .  D
C206       C2811   1.474       .  S
C211        C212   1.543       .  S
C211        C217   1.545       .  S
C211        C215   1.538       .  S
C211       C2416   1.544       .  S
C212        H219   1.083       .  S
C212        C213   1.364       .  D
C213        C214   1.536       .  S
C213       C2265   1.493       .  S
C214        C218   1.528       .  S
C214        C216   1.544       .  S
C214        H220   1.109       .  S
C215        H221   1.085       .  S
C215        C216   1.371       .  D
C216       C2853   1.479       .  S
C217        H222   1.085       .  S
C217        C218   1.361       .  D
C218       C2234   1.477       .  S
C223        C224   1.544       .  S
C223        C229   1.545       .  S
C223        C227   1.546       .  S
C223       C2206   1.550       .  S
C224        H231   1.085       .  S
C224        C225   1.361       .  D
C225        C226   1.531       .  S
C225       C2237   1.481       .  S
C226        C230   1.530       .  S
C226        C228   1.541       .  S
C226        H232   1.112       .  S
C227        H233   1.085       .  S
C227        C228   1.375       .  D
C228       C2587   1.485       .  S
C229        H234   1.083       .  S
C229        C230   1.363       .  D
C230       C2220   1.477       .  S
C235        C236   1.538       .  S
C235        C241   1.547       .  S
C235        C239   1.542       .  S
C235       C2192   1.553       .  S
C236        H243   1.085       .  S
C236        C237   1.363       .  D
C237        C238   1.536       .  S
C237       C2615   1.484       .  S
C238        C242   1.538       .  S
C238        C240   1.547       .  S
C238        H244   1.108       .  S
C239        H245   1.085       .  S
C239        C240   1.374       .  D
C240       C2248   1.488       .  S
C241        H246   1.083       .  S
C241        C242   1.365       .  D
C242       C2223   1.498       .  S
In247       O249   2.272       .  S
In247       O250   2.262       .  S
In247       O258   2.269       .  S
In247       O252   2.253       .  S
In247       O254   2.285       .  S
In247       O255   2.266       .  S
In247       O256   2.240       .  S
In247       O259   2.252       .  S
C248        O254   1.264       .  A
C248        O256   1.258       .  A
C248       C2195   1.496       .  S
O249        C257   1.259       .  A
O250        C257   1.258       .  A
C251        O258   1.262       .  A
C251        O252   1.259       .  A
C251       C2164   1.494       .  S
C253        O255   1.260       .  A
C253        O259   1.257       .  A
C253       C2178   1.488       .  S
C257       C2559   1.494       .  S
In260       O262   2.249       .  S
In260       O263   2.274       .  S
In260       O271   2.248       .  S
In260       O265   2.274       .  S
In260       O267   2.260       .  S
In260       O268   2.271       .  S
In260       O269   2.275       .  S
In260       O272   2.271       .  S
C261        O267   1.258       .  A
C261        O269   1.260       .  A
C261       C2150   1.479       .  S
O262        C270   1.259       .  A
O263        C270   1.263       .  A
C264        O271   1.257       .  A
C264        O265   1.262       .  A
C264       C2402   1.495       .  S
C266        O268   1.260       .  A
C266        O272   1.261       .  A
C266       C2209   1.495       .  S
C270       C2139   1.494       .  S
C273        C274   1.541       .  S
C273        C279   1.530       .  S
C273        C277   1.554       .  S
C273       C2153   1.541       .  S
C274        H281   1.085       .  S
C274        C275   1.362       .  D
C275        C276   1.526       .  S
C275       C2094   1.477       .  S
C276        C280   1.532       .  S
C276        C278   1.541       .  S
C276        H282   1.111       .  S
C277        H283   1.084       .  S
C277        C278   1.383       .  D
C278       C2108   1.487       .  S
C279        H284   1.086       .  S
C279        C280   1.355       .  D
C280       C2125   1.485       .  S
C285        C286   1.538       .  S
C285        C291   1.551       .  S
C285        C289   1.547       .  S
C285       C2181   1.545       .  S
C286        H293   1.086       .  S
C286        C287   1.358       .  D
C287        C288   1.530       .  S
C287       C2066   1.475       .  S
C288        C292   1.524       .  S
C288        C290   1.536       .  S
C288        H294   1.112       .  S
C289        H295   1.085       .  S
C289        C290   1.374       .  D
C290       C2083   1.481       .  S
C291        H296   1.083       .  S
C291        C292   1.360       .  D
C292       C2122   1.470       .  S
C297        C298   1.546       .  S
C297        C303   1.543       .  S
C297        C301   1.543       .  S
C297       C2038   1.544       .  S
C298        H305   1.084       .  S
C298        C299   1.361       .  D
C299        C300   1.530       .  S
C299       C2024   1.482       .  S
C300        C304   1.529       .  S
C300        C302   1.543       .  S
C300        H306   1.111       .  S
C301        H307   1.085       .  S
C301        C302   1.373       .  D
C302       C2010   1.482       .  S
C303        H308   1.085       .  S
C303        C304   1.359       .  D
C304       C2052   1.473       .  S
C309        C310   1.550       .  S
C309        C315   1.539       .  S
C309        C313   1.548       .  S
C309       C1996   1.552       .  S
C310        H317   1.083       .  S
C310        C311   1.364       .  D
C311        C312   1.529       .  S
C311       C1968   1.483       .  S
C312        C316   1.533       .  S
C312        C314   1.535       .  S
C312        H318   1.109       .  S
C313        H319   1.085       .  S
C313        C314   1.375       .  D
C314       C1982   1.485       .  S
C315        H320   1.085       .  S
C315        C316   1.361       .  D
C316       C2055   1.484       .  S
In321       O323   2.244       .  S
In321       O324   2.252       .  S
In321       O332   2.262   1_655  S
In321       O326   2.259   1_655  S
In321       O328   2.258       .  S
In321       O329   2.280   1_655  S
In321       O330   2.265       .  S
In321       O333   2.225   1_655  S
C322        O328   1.261       .  A
C322        O330   1.260       .  A
C322       C1999   1.489       .  S
O323        C331   1.261       .  A
O324        C331   1.261       .  A
C325        O332   1.259       .  A
C325        O326   1.260       .  A
C325       C1926   1.490       .  S
C327        O329   1.261       .  A
C327        O333   1.262       .  A
C327       C1954   1.485       .  S
C331       C1943   1.486       .  S
In334       O336   2.245   1_455  S
In334       O337   2.269   1_455  S
In334       O345   2.263       .  S
In334       O339   2.238       .  S
In334       O341   2.263   1_455  S
In334       O342   2.304       .  S
In334       O343   2.249   1_455  S
In334       O346   2.225       .  S
C335        O341   1.262       .  A
C335        O343   1.259       .  A
C335       C2041   1.488       .  S
O336        C344   1.262       .  A
O337        C344   1.264       .  A
C338        O345   1.263       .  A
C338        O339   1.260       .  A
C338       C1898   1.483       .  S
C340        O342   1.261       .  A
C340        O346   1.257       .  A
C340       C1915   1.492       .  S
C344       C1884   1.495       .  S
C347        C348   1.529       .  S
C347        C353   1.534       .  S
C347        C351   1.555       .  S
C347       C1957   1.536       .  S
C348        H355   1.085       .  S
C348        C349   1.357       .  D
C349        C350   1.532       .  S
C349       C1856   1.485       .  S
C350        C354   1.520       .  S
C350        C352   1.546       .  S
C350        H356   1.110       .  S
C351        H357   1.084       .  S
C351        C352   1.389       .  D
C352       C1842   1.487       .  S
C353        H358   1.087       .  S
C353        C354   1.352       .  D
C354       C1870   1.463       .  S
C359        C360   1.537       .  S
C359        C365   1.531       .  S
C359        C363   1.555       .  S
C359       C1912   1.539       .  S
C360        H367   1.087       .  S
C360        C361   1.361       .  D
C361        C362   1.532       .  S
C361       C1817   1.481       .  S
C362        C366   1.531       .  S
C362        C364   1.543       .  S
C362        H368   1.111       .  S
C363        H369   1.084       .  S
C363        C364   1.384       .  D
C364       C1828   1.487       .  S
C365        H370   1.088       .  S
C365        C366   1.354       .  D
C366       C1873   1.478       .  S
C371        C372   1.533       .  S
C371        C377   1.534       .  S
C371        C375   1.554       .  S
C371       C1786   1.535       .  S
C372        H379   1.087       .  S
C372        C373   1.355       .  D
C373        C374   1.527       .  S
C373       C1800   1.465       .  S
C374        C378   1.533       .  S
C374        C376   1.544       .  S
C374        H380   1.111       .  S
C375        H381   1.084       .  S
C375        C376   1.382       .  D
C376       C1985   1.487       .  S
C377        H382   1.087       .  S
C377        C378   1.359       .  D
C378       C1772   1.481       .  S
C383        C384   1.540       .  S
C383        C389   1.551       .  S
C383        C387   1.545       .  S
C383       C1758   1.549       .  S
C384        H391   1.084       .  S
C384        C385   1.359       .  D
C385        C386   1.526       .  S
C385       C1803   1.475       .  S
C386        C390   1.530       .  S
C386        C388   1.537       .  S
C386        H392   1.110       .  S
C387        H393   1.085       .  S
C387        C388   1.373       .  D
C388       C1744   1.486       .  S
C389        H394   1.084       .  S
C389        C390   1.368       .  D
C390       C2027   1.485       .  S
In395       O397   2.244   1_556  S
In395       O398   2.256   1_556  S
In395       O406   2.246   1_556  S
In395       O400   2.261   1_556  S
In395       O402   2.286       .  S
In395       O403   2.251       .  S
In395       O404   2.217       .  S
In395       O407   2.252       .  S
C396        O402   1.262       .  A
C396        O404   1.259       .  A
C396       C1789   1.482       .  S
O397        C405   1.261       .  A
O398        C405   1.261       .  A
C399        O406   1.261       .  A
C399        O400   1.263       .  A
C399       C2136   1.488       .  S
C401        O403   1.259       .  A
C401        O407   1.261       .  A
C401       C1719   1.488       .  S
C405       C1730   1.481       .  S
In408       O410   2.250   1_556  S
In408       O411   2.276   1_556  S
In408       O419   2.253   1_556  S
In408       O413   2.274   1_556  S
In408       O415   2.274       .  S
In408       O416   2.280       .  S
In408       O417   2.243       .  S
In408       O420   2.245       .  S
C409        O415   1.262       .  A
C409        O417   1.260       .  A
C409       C1761   1.492       .  S
O410        C418   1.257       .  A
O411        C418   1.260       .  A
C412        O419   1.259       .  A
C412        O413   1.263       .  A
C412       C2741   1.493       .  S
C414        O416   1.261       .  A
C414        O420   1.258       .  A
C414       C1887   1.494       .  S
C418       C1702   1.493       .  S
C421        C422   1.546       .  S
C421        C427   1.545       .  S
C421        C425   1.543       .  S
C421       C1705   1.544       .  S
C422        H429   1.085       .  S
C422        C423   1.360       .  D
C423        C424   1.529       .  S
C423       C1688   1.476       .  S
C424        C428   1.529       .  S
C424        C426   1.540       .  S
C424        H430   1.112       .  S
C425        H431   1.085       .  S
C425        C426   1.374       .  D
C426       C2080   1.481       .  S
C427        H432   1.083       .  S
C427        C428   1.359       .  D
C428       C2657   1.476       .  S
C433        C434   1.540       .  S
C433        C439   1.548       .  S
C433        C437   1.543       .  S
C433       C1733   1.544       .  S
C434        H441   1.084       .  S
C434        C435   1.361       .  D
C435        C436   1.537       .  S
C435       C1691   1.490       .  S
C436        C440   1.527       .  S
C436        C438   1.539       .  S
C436        H442   1.111       .  S
C437        H443   1.085       .  S
C437        C438   1.373       .  D
C438       C2685   1.481       .  S
C439        H444   1.083       .  S
C439        C440   1.362       .  D
C440       C2097   1.476       .  S
In445       O447   2.236       .  S
In445       O448   2.275       .  S
In445       O456   2.255       .  S
In445       O450   2.255       .  S
In445       O452   2.273       .  S
In445       O453   2.264       .  S
In445       O454   2.236       .  S
In445       O457   2.249       .  S
C446        O452   1.261       .  A
C446        O454   1.260       .  A
C446       C1674   1.483       .  S
O447        C455   1.260       .  A
O448        C455   1.262       .  A
C449        O456   1.260       .  A
C449        O450   1.260       .  A
C449       C1646   1.490       .  S
C451        O453   1.260       .  A
C451        O457   1.260       .  A
C451       C2766   1.491       .  S
C455       C1663   1.488       .  S
C458        C459   1.546       .  S
C458        C464   1.543       .  S
C458        C462   1.541       .  S
C458       C1621   1.547       .  S
C459        H466   1.084       .  S
C459        C460   1.360       .  D
C460        C461   1.530       .  S
C460       C1632   1.485       .  S
C461        C465   1.532       .  S
C461        C463   1.541       .  S
C461        H467   1.108       .  S
C462        H468   1.085       .  S
C462        C463   1.371       .  D
C463       C2671   1.482       .  S
C464        H469   1.085       .  S
C464        C465   1.367       .  D
C465       C2069   1.481       .  S
C470        C471   1.547       .  S
C470        C476   1.543       .  S
C470        C474   1.545       .  S
C470       C1677   1.548       .  S
C471        H478   1.084       .  S
C471        C472   1.357       .  D
C472        C473   1.525       .  S
C472       C1635   1.471       .  S
C473        C477   1.534       .  S
C473        C475   1.541       .  S
C473        H479   1.109       .  S
C474        H480   1.085       .  S
C474        C475   1.374       .  D
C475       C2111   1.488       .  S
C476        H481   1.085       .  S
C476        C477   1.367       .  D
C477       C2699   1.483       .  S
In482       O484   2.238       .  S
In482       O485   2.271       .  S
In482       O493   2.253       .  S
In482       O487   2.254       .  S
In482       O489   2.295       .  S
In482       O490   2.253       .  S
In482       O491   2.224       .  S
In482       O494   2.251       .  S
C483        O489   1.261       .  A
C483        O491   1.259       .  A
C483       C1604   1.485       .  S
O484        C492   1.261       .  A
O485        C492   1.262       .  A
C486        O493   1.261       .  A
C486        O487   1.262       .  A
C486       C2167   1.492       .  S
C488        O490   1.260       .  A
C488        O494   1.261       .  A
C488       C1940   1.485       .  S
C492       C1618   1.488       .  S
C495        C496   1.532       .  S
C495        C501   1.538       .  S
C495        C499   1.556       .  S
C495       C1607   1.536       .  S
C496        H503   1.088       .  S
C496        C497   1.353       .  D
C497        C498   1.527       .  S
C497       C1590   1.472       .  S
C498        C502   1.527       .  S
C498        C500   1.541       .  S
C498        H504   1.112       .  S
C499        H505   1.084       .  S
C499        C500   1.385       .  D
C500       C1576   1.482       .  S
C501        H506   1.087       .  S
C501        C502   1.358       .  D
C502       C1971   1.474       .  S
C507        C508   1.548       .  S
C507        C513   1.541       .  S
C507        C511   1.541       .  S
C507       C1660   1.543       .  S
C508        H515   1.081       .  S
C508        C509   1.357       .  D
C509        C510   1.522       .  S
C509       C1593   1.468       .  S
C510        C514   1.534       .  S
C510        C512   1.542       .  S
C510        H516   1.111       .  S
C511        H517   1.085       .  S
C511        C512   1.372       .  D
C512       C2013   1.482       .  S
C513        H518   1.085       .  S
C513        C514   1.364       .  D
C514       C1562   1.488       .  S
C519        C520   1.537       .  S
C519        C525   1.543       .  S
C519        C523   1.549       .  S
C519       C1534   1.549       .  S
C520        H527   1.083       .  S
C520        C521   1.360       .  D
C521        C522   1.537       .  S
C521       C1565   1.479       .  S
C522        C526   1.536       .  S
C522        C524   1.545       .  S
C522        H528   1.111       .  S
C523        H529   1.085       .  S
C523        C524   1.377       .  D
C524       C1747   1.496       .  S
C525        H530   1.085       .  S
C525        C526   1.355       .  D
C526       C1548   1.480       .  S
C531        C532   1.541       .  S
C531        C537   1.546       .  S
C531        C535   1.539       .  S
C531       C1523   1.546       .  S
C532        H539   1.085       .  S
C532        C533   1.359       .  D
C533        C534   1.528       .  S
C533       C1775   1.476       .  S
C534        C538   1.535       .  S
C534        C536   1.544       .  S
C534        H540   1.111       .  S
C535        H541   1.085       .  S
C535        C536   1.371       .  D
C536       C1579   1.482       .  S
C537        H542   1.083       .  S
C537        C538   1.368       .  D
C538       C1551   1.489       .  S
In543       O545   2.242       .  S
In543       O546   2.259       .  S
In543       O554   2.246       .  S
In543       O548   2.259       .  S
In543       O550   2.269       .  S
In543       O551   2.275       .  S
In543       O552   2.250       .  S
In543       O555   2.226       .  S
C544        O550   1.261       .  A
C544        O552   1.259       .  A
C544       C1520   1.490       .  S
O545        C553   1.259       .  A
O546        C553   1.262       .  A
C547        O554   1.259       .  A
C547        O548   1.261       .  A
C547       C1492   1.487       .  S
C549        O551   1.262       .  A
C549        O555   1.260       .  A
C549       C1506   1.485       .  S
C553       C1716   1.489       .  S
In556       O558   2.250       .  S
In556       O559   2.264       .  S
In556       O567   2.270       .  S
In556       O561   2.252       .  S
In556       O563   2.271       .  S
In556       O564   2.292       .  S
In556       O565   2.241       .  S
In556       O568   2.223       .  S
C557        O563   1.262       .  A
C557        O565   1.260       .  A
C557       C1537   1.489       .  S
O558        C566   1.261       .  A
O559        C566   1.262       .  A
C560        O567   1.260       .  A
C560        O561   1.257       .  A
C560       C1464   1.486       .  S
C562        O564   1.263       .  A
C562        O568   1.259       .  A
C562       C1478   1.485       .  S
C566       C1649   1.492       .  S
C569        C570   1.532       .  S
C569        C575   1.532       .  S
C569        C573   1.554       .  S
C569       C1481   1.542       .  S
C570        H577   1.088       .  S
C570        C571   1.356       .  D
C571        C572   1.533       .  S
C571       C1422   1.483       .  S
C572        C576   1.529       .  S
C572        C574   1.551       .  S
C572        H578   1.111       .  S
C573        H579   1.084       .  S
C573        C574   1.384       .  D
C574       C1436   1.493       .  S
C575        H580   1.083       .  S
C575        C576   1.357       .  D
C576       C1450   1.470       .  S
C581        C582   1.540       .  S
C581        C587   1.532       .  S
C581        C585   1.550       .  S
C581       C1509   1.535       .  S
C582        H589   1.086       .  S
C582        C583   1.367       .  D
C583        C584   1.530       .  S
C583       C1394   1.485       .  S
C584        C588   1.528       .  S
C584        C586   1.539       .  S
C584        H590   1.110       .  S
C585        H591   1.083       .  S
C585        C586   1.375       .  D
C586       C1408   1.479       .  S
C587        H592   1.087       .  S
C587        C588   1.357       .  D
C588       C1453   1.474       .  S
In593       O595   2.258       .  S
In593       O596   2.244       .  S
In593       O604   2.249       .  S
In593       O598   2.248       .  S
In593       O600   2.295       .  S
In593       O601   2.273       .  S
In593       O602   2.194       .  S
In593       O605   2.234       .  S
C594        O600   1.264       .  A
C594        O602   1.259       .  A
C594       C1366   1.486       .  S
O595        C603   1.260       .  A
O596        C603   1.260       .  A
C597        O604   1.259       .  A
C597        O598   1.261       .  A
C597       C2545   1.486       .  S
C599        O601   1.262       .  A
C599        O605   1.259       .  A
C599       C1380   1.485       .  S
C603       C1352   1.490       .  S
C606        C607   1.548       .  S
C606        C612   1.540       .  S
C606        C610   1.541       .  S
C606       C1324   1.545       .  S
C607        H614   1.082       .  S
C607        C608   1.365       .  D
C608        C609   1.534       .  S
C608       C2335   1.481       .  S
C609        C613   1.537       .  S
C609        C611   1.545       .  S
C609        H615   1.110       .  S
C610        H616   1.085       .  S
C610        C611   1.372       .  D
C611       C2489   1.486       .  S
C612        H617   1.085       .  S
C612        C613   1.360       .  D
C613       C1338   1.492       .  S
C618        C619   1.542       .  S
C618        C624   1.547       .  S
C618        C622   1.543       .  S
C618       C1383   1.543       .  S
C619        H626   1.085       .  S
C619        C620   1.363       .  D
C620        C621   1.533       .  S
C620       C2461   1.487       .  S
C621        C625   1.532       .  S
C621        C623   1.542       .  S
C621        H627   1.111       .  S
C622        H628   1.085       .  S
C622        C623   1.372       .  D
C623       C2321   1.483       .  S
C624        H629   1.082       .  S
C624        C625   1.361       .  D
C625       C1341   1.479       .  S
In630       O632   2.243       .  S
In630       O633   2.280       .  S
In630       O641   2.250       .  S
In630       O635   2.275       .  S
In630       O637   2.275       .  S
In630       O638   2.246       .  S
In630       O639   2.237       .  S
In630       O642   2.277       .  S
C631        O637   1.264       .  A
C631        O639   1.259       .  A
C631       C1310   1.492       .  S
O632        C640   1.259       .  A
O633        C640   1.262       .  A
C634        O641   1.261       .  A
C634        O635   1.263       .  A
C634       C2279   1.495       .  S
C636        O638   1.258       .  A
C636        O642   1.263       .  A
C636       C1327   1.493       .  S
C640       C1296   1.497       .  S
C643        C644   1.530       .  S
C643        C649   1.533       .  S
C643        C647   1.554       .  S
C643       C1369   1.534       .  S
C644        H651   1.087       .  S
C644        C645   1.355       .  D
C645        C646   1.535       .  S
C645       C1254   1.483       .  S
C646        C650   1.530       .  S
C646        C648   1.545       .  S
C646        H652   1.111       .  S
C647        H653   1.084       .  S
C647        C648   1.386       .  D
C648       C1268   1.486       .  S
C649        H654   1.087       .  S
C649        C650   1.354       .  D
C650       C1282   1.469       .  S
C655        C656   1.556       .  S
C655        C661   1.543       .  S
C655        C659   1.548       .  S
C655       C1313   1.545       .  S
C656        H663   1.083       .  S
C656        C657   1.364       .  D
C657        C658   1.523       .  S
C657       C1226   1.480       .  S
C658        C662   1.525       .  S
C658        C660   1.526       .  S
C658        H664   1.110       .  S
C659        H665   1.085       .  S
C659        C660   1.371       .  D
C660       C1240   1.479       .  S
C661        H666   1.082       .  S
C661        C662   1.359       .  D
C662       C1285   1.474       .  S
In667       O669   2.262       .  S
In667       O670   2.266       .  S
In667       O678   2.260       .  S
In667       O672   2.251       .  S
In667       O674   2.270       .  S
In667       O675   2.267       .  S
In667       O676   2.269       .  S
In667       O679   2.259       .  S
C668        O674   1.260       .  A
C668        O676   1.260       .  A
C668       C1198   1.494       .  S
O669        C677   1.263       .  A
O670        C677   1.263       .  A
C671        O678   1.260       .  A
C671        O672   1.259       .  A
C671       C1355   1.490       .  S
C673        O675   1.259       .  A
C673        O679   1.258       .  A
C673       C1929   1.490       .  S
C677       C1215   1.493       .  S
C680        C681   1.530       .  S
C680        C686   1.540       .  S
C680        C684   1.558       .  S
C680       C1170   1.540       .  S
C681        H688   1.088       .  S
C681        C682   1.353       .  D
C682        C683   1.535       .  S
C682       C1184   1.477       .  S
C683        C687   1.530       .  S
C683        C685   1.539       .  S
C683        H689   1.111       .  S
C684        H690   1.084       .  S
C684        C685   1.382       .  D
C685       C1831   1.488       .  S
C686        H691   1.085       .  S
C686        C687   1.365       .  D
C687       C1397   1.481       .  S
C692        C693   1.545       .  S
C692        C698   1.544       .  S
C692        C696   1.544       .  S
C692       C1201   1.549       .  S
C693        H700   1.084       .  S
C693        C694   1.356       .  D
C694        C695   1.529       .  S
C694       C1187   1.477       .  S
C695        C699   1.532       .  S
C695        C697   1.546       .  S
C695        H701   1.109       .  S
C696        H702   1.085       .  S
C696        C697   1.375       .  D
C697       C1439   1.488       .  S
C698        H703   1.084       .  S
C698        C699   1.368       .  D
C699       C1859   1.487       .  S
In704       O706   2.226       .  S
In704       O707   2.293       .  S
In704       O715   2.261       .  S
In704       O709   2.243       .  S
In704       O711   2.264       .  S
In704       O712   2.271       .  S
In704       O713   2.252       .  S
In704       O716   2.234       .  S
C705        O711   1.262       .  A
C705        O713   1.258       .  A
C705       C1156   1.491       .  S
O706        C714   1.259       .  A
O707        C714   1.261       .  A
C708        O715   1.263       .  A
C708        O709   1.260       .  A
C708       C1495   1.489       .  S
C710        O712   1.262       .  A
C710        O716   1.260       .  A
C710       C1142   1.489       .  S
C714       C1173   1.490       .  S
C717        C718   1.539       .  S
C717        C723   1.547       .  S
C717        C721   1.536       .  S
C717       C1159   1.546       .  S
C718        H725   1.085       .  S
C718        C719   1.363       .  D
C719        C720   1.536       .  S
C719       C1128   1.489       .  S
C720        C724   1.532       .  S
C720        C722   1.548       .  S
C720        H726   1.110       .  S
C721        H727   1.086       .  S
C721        C722   1.370       .  D
C722       C1243   1.482       .  S
C723        H728   1.084       .  S
C723        C724   1.365       .  D
C724       C1114   1.482       .  S
C729        C730   1.550       .  S
C729        C735   1.541       .  S
C729        C733   1.547       .  S
C729       C1212   1.551       .  S
C730        H737   1.083       .  S
C730        C731   1.360       .  D
C731        C732   1.521       .  S
C731       C1131   1.472       .  S
C732        C736   1.532       .  S
C732        C734   1.539       .  S
C732        H738   1.110       .  S
C733        H739   1.085       .  S
C733        C734   1.376       .  D
C734       C1100   1.484       .  S
C735        H740   1.086       .  S
C735        C736   1.365       .  D
C736       C1257   1.482       .  S
C741        C742   1.549       .  S
C741        C747   1.535       .  S
C741        C745   1.543       .  S
C741       C1072   1.550       .  S
C742        H749   1.081       .  S
C742        C743   1.368       .  D
C743        C744   1.533       .  S
C743       C1058   1.494       .  S
C744        C748   1.542       .  S
C744        C746   1.544       .  S
C744        H750   1.106       .  S
C745        H751   1.085       .  S
C745        C746   1.374       .  D
C746       C1103   1.490       .  S
C747        H752   1.085       .  S
C747        C748   1.362       .  D
C748       C1089   1.494       .  S
C753        C754   1.544       .  S
C753        C759   1.546       .  S
C753        C757   1.545       .  S
C753       C1044   1.550       .  S
C754        H761   1.082       .  S
C754        C755   1.364       .  D
C755        C756   1.531       .  S
C755       C1117   1.486       .  S
C756        C760   1.531       .  S
C756        C758   1.540       .  S
C756        H762   1.111       .  S
C757        H763   1.085       .  S
C757        C758   1.374       .  D
C758       C1030   1.487       .  S
C759        H764   1.085       .  S
C759        C760   1.361       .  D
C760       C1086   1.472       .  S
In765       O767   2.248       .  S
In765       O768   2.258       .  S
In765       O776   2.257   1_556  S
In765       O770   2.263   1_556  S
In765       O772   2.269       .  S
In765       O773   2.267   1_556  S
In765       O774   2.255       .  S
In765       O777   2.253       .  S
C766        O772   1.262       .  A
C766        O774   1.261       .  A
C766       C1047   1.494       .  S
O767        C775   1.260       .  A
O768        C775   1.259       .  A
C769        O776   1.261       .  A
C769        O770   1.262       .  A
C769       C2388   1.487       .  S
C771        O773   1.260       .  A
C771        O777   1.258   1_554  A
C771       C1016   1.490       .  S
C775       C1145   1.485       .  S
In778       O780   2.246       .  S
In778       O781   2.257       .  S
In778       O789   2.235   1_556  S
In778       O783   2.275   1_556  S
In778       O785   2.247       .  S
In778       O786   2.275   1_556  S
In778       O787   2.281       .  S
In778       O790   2.246   1_556  S
C779        O785   1.258       .  A
C779        O787   1.264       .  A
C779       C1075   1.497       .  S
O780        C788   1.259       .  A
O781        C788   1.261       .  A
C782        O789   1.258       .  A
C782        O783   1.263       .  A
C782       C2514   1.491       .  S
C784        O786   1.263       .  A
C784        O790   1.258       .  A
C784       C1002   1.489       .  S
C788        C988   1.483       .  S
C791        C792   1.544       .  S
C791        C797   1.547       .  S
C791        C795   1.541       .  S
C791       C1019   1.541       .  S
C792        H799   1.085       .  S
C792        C793   1.362       .  D
C793        C794   1.527       .  S
C793       C2307   1.477       .  S
C794        C798   1.531       .  S
C794        C796   1.539       .  S
C794        H800   1.112       .  S
C795        H801   1.085       .  S
C795        C796   1.371       .  D
C796       C2447   1.479       .  S
C797        H802   1.084       .  S
C797        C798   1.361       .  D
C798        C974   1.477       .  S
C803        C804   1.551       .  S
C803        C809   1.539       .  S
C803        C807   1.538       .  S
C803       C1005   1.538       .  S
C804        H811   1.082       .  S
C804        C805   1.365       .  D
C805        C806   1.530       .  S
C805       C2475   1.486       .  S
C806        C810   1.540       .  S
C806        C808   1.539       .  S
C806        H812   1.105       .  S
C807        H813   1.086       .  S
C807        C808   1.368       .  D
C808       C2349   1.477       .  S
C809        H814   1.085       .  S
C809        C810   1.363       .  D
C810        C977   1.494       .  S
C815        C816   1.533       .  S
C815        C821   1.540       .  S
C815        C819   1.557       .  S
C815        C946   1.542       .  S
C816        H823   1.087       .  S
C816        C817   1.353       .  D
C817        C818   1.535       .  S
C817        C960   1.479       .  S
C818        C822   1.532       .  S
C818        C820   1.543       .  S
C818        H824   1.111       .  S
C819        H825   1.084       .  S
C819        C820   1.383       .  D
C820       C1271   1.490       .  S
C821        H826   1.087       .  S
C821        C822   1.363       .  D
C822       C1061   1.482       .  S
C827        C828   1.543       .  S
C827        C833   1.547       .  S
C827        C831   1.553       .  S
C827        C932   1.550       .  S
C828        H835   1.085       .  S
C828        C829   1.358       .  D
C829        C830   1.527       .  S
C829        C963   1.476       .  S
C830        C834   1.534       .  S
C830        C832   1.527       .  S
C830        H836   1.112       .  S
C831        H837   1.085       .  S
C831        C832   1.377       .  D
C832       C1033   1.489       .  S
C833        H838   1.083       .  S
C833        C834   1.362       .  D
C834       C1229   1.477       .  S
In839       O841   2.217   1_545  S
In839       O842   2.300   1_545  S
In839       O850   2.244   1_545  S
In839       O844   2.253   1_545  S
In839       O846   2.258       .  S
In839       O847   2.260       .  S
In839       O848   2.259       .  S
In839       O851   2.252       .  S
C840        O846   1.259       .  A
C840        O848   1.260       .  A
C840        C918   1.487       .  S
O841        C849   1.259       .  A
O842        C849   1.264       .  A
C843        O850   1.262       .  A
C843        O844   1.262       .  A
C843        C991   1.483       .  S
C845        O847   1.262       .  A
C845        O851   1.258       .  A
C845       C1901   1.489       .  S
C849        C949   1.492       .  S
In852       O854   2.258   1_545  S
In852       O855   2.271   1_545  S
In852       O863   2.239   1_545  S
In852       O857   2.281   1_545  S
In852       O859   2.279       .  S
In852       O860   2.274       .  S
In852       O861   2.253       .  S
In852       O864   2.259       .  S
C853        O859   1.260       .  A
C853        O861   1.258       .  A
C853        C907   1.493       .  S
O854        C862   1.260       .  A
O855        C862   1.260       .  A
C856        O863   1.260       .  A
C856        O857   1.263       .  A
C856       C1299   1.496       .  S
C858        O860   1.260       .  A
C858        O864   1.258       .  A
C858       C1467   1.492       .  S
C862        C935   1.493       .  S
C865        C866   1.536       .  S
C865        C871   1.549       .  S
C865        C869   1.541       .  S
C865        C921   1.542       .  S
C866        H873   1.086       .  S
C866        C867   1.363       .  D
C867        C868   1.537       .  S
C867        C890   1.491       .  S
C868        C872   1.531       .  S
C868        C870   1.538       .  S
C868        H874   1.110       .  S
C869        H875   1.085       .  S
C869        C870   1.369       .  D
C870       C1411   1.477       .  S
C871        H876   1.082       .  S
C871        C872   1.365       .  D
C872       C1814   1.481       .  S
C877        C878   1.549       .  S
C877        C883   1.541       .  S
C877        C881   1.546       .  S
C877        C904   1.548       .  S
C878        H885   1.082       .  S
C878        C879   1.362       .  D
C879        C880   1.527       .  S
C879        C893   1.478       .  S
C880        C884   1.530       .  S
C880        C882   1.543       .  S
C880        H886   1.112       .  S
C881        H887   1.085       .  S
C881        C882   1.376       .  D
C882       C1845   1.487       .  S
C883        H888   1.085       .  S
C883        C884   1.360       .  D
C884       C1425   1.477       .  S
C889        C890   1.408       .  A
C889        C894   1.396       .  A
C889        H896   1.083       .  S
C890        C891   1.409       .  A
C891        C892   1.409       .  A
C891        N898   1.431       .  S
C892        C893   1.405       .  A
C892        H897   1.082       .  S
C893        C894   1.401       .  A
C894        N895   1.432       .  S
N895        H899   1.046       .  S
N895        H900   1.045       .  S
N898        H901   1.046       .  S
N898        H902   1.045       .  S
C903        C904   1.411       .  A
C903        C908   1.403       .  A
C903        H910   1.079       .  S
C904        C905   1.418       .  A
C905        C906   1.414       .  A
C905        N912   1.437       .  S
C906        C907   1.407       .  A
C906        H911   1.083       .  S
C907        C908   1.410       .  A
C908        N909   1.433       .  S
N909        H913   1.045       .  S
N909        H914   1.046       .  S
N912        H915   1.046       .  S
N912        H916   1.045       .  S
C917        C918   1.404       .  A
C917        C922   1.405       .  A
C917        H924   1.084       .  S
C918        C919   1.409       .  A
C919        C920   1.403       .  A
C919        N926   1.432       .  S
C920        C921   1.410       .  A
C920        H925   1.082       .  S
C921        C922   1.425       .  A
C922        N923   1.439       .  S
N923        H927   1.045       .  S
N923        H928   1.043       .  S
N926        H929   1.046       .  S
N926        H930   1.046       .  S
C931        C932   1.412       .  A
C931        C936   1.408       .  A
C931        H938   1.082       .  S
C932        C933   1.423       .  A
C933        C934   1.407       .  A
C933        N940   1.438       .  S
C934        C935   1.405       .  A
C934        H939   1.084       .  S
C935        C936   1.412       .  A
C936        N937   1.438       .  S
N937        H941   1.044       .  S
N937        H942   1.047       .  S
N940        H943   1.044       .  S
N940        H944   1.045       .  S
C945        C946   1.413       .  A
C945        C950   1.425       .  A
C945        H952   1.081       .  S
C946        C947   1.421       .  A
C947        C948   1.391       .  A
C947        N954   1.435       .  S
C948        C949   1.396       .  A
C948        H953   1.084       .  S
C949        C950   1.418       .  A
C950        N951   1.437       .  S
N951        H955   1.045       .  S
N951        H956   1.046       .  S
N954        H957   1.045       .  S
N954        H958   1.046       .  S
C959        C960   1.400       .  A
C959        C964   1.400       .  A
C959        H966   1.078       .  S
C960        C961   1.422       .  A
C961        C962   1.402       .  A
C961        N968   1.438       .  S
C962        C963   1.398       .  A
C962        H967   1.083       .  S
C963        C964   1.406       .  A
C964        N965   1.433       .  S
N965        H969   1.045       .  S
N965        H970   1.046       .  S
N968        H971   1.042       .  S
N968        H972   1.045       .  S
C973        C974   1.402       .  A
C973        C978   1.405       .  A
C973        H980   1.081       .  S
C974        C975   1.401       .  A
C975        C976   1.399       .  A
C975        N982   1.432       .  S
C976        C977   1.411       .  A
C976        H981   1.083       .  S
C977        C978   1.410       .  A
C978        N979   1.431       .  S
N979        H983   1.046       .  S
N979        H984   1.045       .  S
N982        H985   1.045       .  S
N982        H986   1.046       .  S
C987        C988   1.405       .  A
C987        C992   1.404       .  A
C987        H994   1.084       .  S
C988        C989   1.411       .  A
C989        C990   1.405       .  A
C989        N996   1.432       .  S
C990        C991   1.405       .  A
C990        H995   1.084       .  S
C991        C992   1.411       .  A
C992        N993   1.432       .  S
N993        H997   1.046       .  S
N993        H998   1.046       .  S
N996        H999   1.046       .  S
N996       H1000   1.045       .  S
C1001      C1002   1.405       .  A
C1001      C1006   1.408       .  A
C1001      H1008   1.083       .  S
C1002      C1003   1.412       .  A
C1003      C1004   1.403       .  A
C1003      N1010   1.432       .  S
C1004      C1005   1.408       .  A
C1004      H1009   1.079       .  S
C1005      C1006   1.415       .  A
C1006      N1007   1.433       .  S
N1007      H1011   1.045       .  S
N1007      H1012   1.045       .  S
N1010      H1013   1.046       .  S
N1010      H1014   1.046       .  S
C1015      C1016   1.407       .  A
C1015      C1020   1.407       .  A
C1015      H1022   1.084       .  S
C1016      C1017   1.417       .  A
C1017      C1018   1.399       .  A
C1017      N1024   1.432       .  S
C1018      C1019   1.409       .  A
C1018      H1023   1.081       .  S
C1019      C1020   1.414       .  A
C1020      N1021   1.433       .  S
N1021      H1025   1.046       .  S
N1021      H1026   1.045       .  S
N1024      H1027   1.045   1_554  S
N1024      H1028   1.045       .  S
C1029      C1030   1.404       .  A
C1029      C1034   1.409       .  A
C1029      H1036   1.084       .  S
C1030      C1031   1.407       .  A
C1031      C1032   1.409       .  A
C1031      N1038   1.437       .  S
C1032      C1033   1.407       .  A
C1032      H1037   1.084       .  S
C1033      C1034   1.418       .  A
C1034      N1035   1.438       .  S
N1035      H1039   1.046       .  S
N1035      H1040   1.042       .  S
N1038      H1041   1.046       .  S
N1038      H1042   1.044       .  S
C1043      C1044   1.411       .  A
C1043      C1048   1.409       .  A
C1043      H1050   1.082       .  S
C1044      C1045   1.424       .  A
C1045      C1046   1.407       .  A
C1045      N1052   1.438       .  S
C1046      C1047   1.405       .  A
C1046      H1051   1.084       .  S
C1047      C1048   1.413       .  A
C1048      N1049   1.437       .  S
N1049      H1053   1.045       .  S
N1049      H1054   1.046       .  S
N1052      H1055   1.042       .  S
N1052      H1056   1.047       .  S
C1057      C1058   1.406       .  A
C1057      C1062   1.404       .  A
C1057      H1064   1.084       .  S
C1058      C1059   1.415       .  A
C1059      C1060   1.402       .  A
C1059      N1066   1.430       .  S
C1060      C1061   1.399       .  A
C1060      H1065   1.083       .  S
C1061      C1062   1.410       .  A
C1062      N1063   1.437       .  S
N1063      H1067   1.044       .  S
N1063      H1068   1.046       .  S
N1066      H1069   1.046       .  S
N1066      H1070   1.046       .  S
C1071      C1072   1.410       .  A
C1071      C1076   1.401       .  A
C1071      H1078   1.079       .  S
C1072      C1073   1.420       .  A
C1073      C1074   1.413       .  A
C1073      N1080   1.438       .  S
C1074      C1075   1.406       .  A
C1074      H1079   1.083       .  S
C1075      C1076   1.418       .  A
C1076      N1077   1.433       .  S
N1077      H1081   1.046       .  S
N1077      H1082   1.044       .  S
N1080      H1083   1.042       .  S
N1080      H1084   1.049       .  S
C1085      C1086   1.400       .  A
C1085      C1090   1.401       .  A
C1085      H1092   1.083       .  S
C1086      C1087   1.403       .  A
C1087      C1088   1.402       .  A
C1087      N1094   1.438       .  S
C1088      C1089   1.413       .  A
C1088      H1093   1.082       .  S
C1089      C1090   1.410       .  A
C1090      N1091   1.430       .  S
N1091      H1095   1.046       .  S
N1091      H1096   1.045       .  S
N1094      H1097   1.044       .  S
N1094      H1098   1.047       .  S
C1099      C1100   1.403       .  A
C1099      C1104   1.406       .  A
C1099      H1106   1.083       .  S
C1100      C1101   1.405       .  A
C1101      C1102   1.408       .  A
C1101      N1108   1.431       .  S
C1102      C1103   1.405       .  A
C1102      H1107   1.084       .  S
C1103      C1104   1.416       .  A
C1104      N1105   1.437       .  S
N1105      H1109   1.046       .  S
N1105      H1110   1.044       .  S
N1108      H1111   1.046       .  S
N1108      H1112   1.044       .  S
C1113      C1114   1.403       .  A
C1113      C1118   1.397       .  A
C1113      H1120   1.084       .  S
C1114      C1115   1.406       .  A
C1115      C1116   1.408       .  A
C1115      N1122   1.432       .  S
C1116      C1117   1.406       .  A
C1116      H1121   1.083       .  S
C1117      C1118   1.411       .  A
C1118      N1119   1.433       .  S
N1119      H1123   1.046       .  S
N1119      H1124   1.046       .  S
N1122      H1125   1.045       .  S
N1122      H1126   1.046       .  S
C1127      C1128   1.409       .  A
C1127      C1132   1.397       .  A
C1127      H1134   1.084       .  S
C1128      C1129   1.411       .  A
C1129      C1130   1.406       .  A
C1129      N1136   1.431       .  S
C1130      C1131   1.402       .  A
C1130      H1135   1.083       .  S
C1131      C1132   1.400       .  A
C1132      N1133   1.432       .  S
N1133      H1137   1.046       .  S
N1133      H1138   1.045       .  S
N1136      H1139   1.045       .  S
N1136      H1140   1.046       .  S
C1141      C1142   1.406       .  A
C1141      C1146   1.403       .  A
C1141      H1148   1.083       .  S
C1142      C1143   1.416       .  A
C1143      C1144   1.410       .  A
C1143      N1150   1.438       .  S
C1144      C1145   1.406       .  A
C1144      H1149   1.084       .  S
C1145      C1146   1.411       .  A
C1146      N1147   1.438       .  S
N1147      H1151   1.047       .  S
N1147      H1152   1.044       .  S
N1150      H1153   1.045       .  S
N1150      H1154   1.046       .  S
C1155      C1156   1.405       .  A
C1155      C1160   1.405       .  A
C1155      H1162   1.084       .  S
C1156      C1157   1.418       .  A
C1157      C1158   1.401       .  A
C1157      N1164   1.432       .  S
C1158      C1159   1.409       .  A
C1158      H1163   1.082       .  S
C1159      C1160   1.422       .  A
C1160      N1161   1.438       .  S
N1161      H1165   1.045       .  S
N1161      H1166   1.044       .  S
N1164      H1167   1.046       .  S
N1164      H1168   1.044       .  S
C1169      C1170   1.411       .  A
C1169      C1174   1.419       .  A
C1169      H1176   1.081       .  S
C1170      C1171   1.423       .  A
C1171      C1172   1.393       .  A
C1171      N1178   1.434       .  S
C1172      C1173   1.397       .  A
C1172      H1177   1.084       .  S
C1173      C1174   1.414       .  A
C1174      N1175   1.431       .  S
N1175      H1179   1.045       .  S
N1175      H1180   1.046       .  S
N1178      H1181   1.046       .  S
N1178      H1182   1.046       .  S
C1183      C1184   1.396       .  A
C1183      C1188   1.400       .  A
C1183      H1190   1.081       .  S
C1184      C1185   1.417       .  A
C1185      C1186   1.405       .  A
C1185      N1192   1.437       .  S
C1186      C1187   1.396       .  A
C1186      H1191   1.084       .  S
C1187      C1188   1.411       .  A
C1188      N1189   1.430       .  S
N1189      H1193   1.045       .  S
N1189      H1194   1.046       .  S
N1192      H1195   1.041       .  S
N1192      H1196   1.045       .  S
C1197      C1198   1.407       .  A
C1197      C1202   1.409       .  A
C1197      H1204   1.083       .  S
C1198      C1199   1.413       .  A
C1199      C1200   1.409       .  A
C1199      N1206   1.438       .  S
C1200      C1201   1.412       .  A
C1200      H1205   1.081       .  S
C1201      C1202   1.414       .  A
C1202      N1203   1.433       .  S
N1203      H1207   1.045       .  S
N1203      H1208   1.046       .  S
N1206      H1209   1.046       .  S
N1206      H1210   1.045       .  S
C1211      C1212   1.413       .  A
C1211      C1216   1.403       .  A
C1211      H1218   1.080       .  S
C1212      C1213   1.417       .  A
C1213      C1214   1.411       .  A
C1213      N1220   1.432       .  S
C1214      C1215   1.406       .  A
C1214      H1219   1.084       .  S
C1215      C1216   1.415       .  A
C1216      N1217   1.433       .  S
N1217      H1221   1.046       .  S
N1217      H1222   1.045       .  S
N1220      H1223   1.046       .  S
N1220      H1224   1.045       .  S
C1225      C1226   1.405       .  A
C1225      C1230   1.401       .  A
C1225      H1232   1.084       .  S
C1226      C1227   1.411       .  A
C1227      C1228   1.388       .  A
C1227      N1234   1.431       .  S
C1228      C1229   1.397       .  A
C1228      H1233   1.080       .  S
C1229      C1230   1.416       .  A
C1230      N1231   1.433       .  S
N1231      H1235   1.044       .  S
N1231      H1236   1.043       .  S
N1234      H1237   1.046       .  S
N1234      H1238   1.045       .  S
C1239      C1240   1.404       .  A
C1239      C1244   1.412       .  A
C1239      H1246   1.084       .  S
C1240      C1241   1.407       .  A
C1241      C1242   1.402       .  A
C1241      N1248   1.432       .  S
C1242      C1243   1.400       .  A
C1242      H1247   1.084       .  S
C1243      C1244   1.411       .  A
C1244      N1245   1.437       .  S
N1245      H1249   1.046       .  S
N1245      H1250   1.043       .  S
N1248      H1251   1.046       .  S
N1248      H1252   1.045       .  S
C1253      C1254   1.403       .  A
C1253      C1258   1.403       .  A
C1253      H1260   1.082       .  S
C1254      C1255   1.413       .  A
C1255      C1256   1.392       .  A
C1255      N1262   1.433       .  S
C1256      C1257   1.401       .  A
C1256      H1261   1.084       .  S
C1257      C1258   1.413       .  A
C1258      N1259   1.431       .  S
N1259      H1263   1.042       .  S
N1259      H1264   1.046       .  S
N1262      H1265   1.046       .  S
N1262      H1266   1.045       .  S
C1267      C1268   1.406       .  A
C1267      C1272   1.405       .  A
C1267      H1274   1.084       .  S
C1268      C1269   1.415       .  A
C1269      C1270   1.405       .  A
C1269      N1276   1.438       .  S
C1270      C1271   1.403       .  A
C1270      H1275   1.081       .  S
C1271      C1272   1.411       .  A
C1272      N1273   1.430       .  S
N1273      H1277   1.042       .  S
N1273      H1278   1.045       .  S
N1276      H1279   1.045       .  S
N1276      H1280   1.044       .  S
C1281      C1282   1.399       .  A
C1281      C1286   1.396       .  A
C1281      H1288   1.084       .  S
C1282      C1283   1.410       .  A
C1283      C1284   1.392       .  A
C1283      N1290   1.428       .  S
C1284      C1285   1.399       .  A
C1284      H1289   1.084       .  S
C1285      C1286   1.418       .  A
C1286      N1287   1.433       .  S
N1287      H1291   1.042       .  S
N1287      H1292   1.045       .  S
N1290      H1293   1.047       .  S
N1290      H1294   1.039       .  S
C1295      C1296   1.410       .  A
C1295      C1300   1.409       .  A
C1295      H1302   1.084       .  S
C1296      C1297   1.419       .  A
C1297      C1298   1.398       .  A
C1297      N1304   1.432       .  S
C1298      C1299   1.405       .  A
C1298      H1303   1.084       .  S
C1299      C1300   1.419       .  A
C1300      N1301   1.432       .  S
N1301      H1305   1.045       .  S
N1301      H1306   1.045       .  S
N1304      H1307   1.045       .  S
N1304      H1308   1.045       .  S
C1309      C1310   1.404       .  A
C1309      C1314   1.406       .  A
C1309      H1316   1.083       .  S
C1310      C1311   1.414       .  A
C1311      C1312   1.406       .  A
C1311      N1318   1.438       .  S
C1312      C1313   1.408       .  A
C1312      H1317   1.080       .  S
C1313      C1314   1.424       .  A
C1314      N1315   1.438       .  S
N1315      H1319   1.043       .  S
N1315      H1320   1.046       .  S
N1318      H1321   1.046       .  S
N1318      H1322   1.045       .  S
C1323      C1324   1.409       .  A
C1323      C1328   1.407       .  A
C1323      H1330   1.079       .  S
C1324      C1325   1.421       .  A
C1325      C1326   1.405       .  A
C1325      N1332   1.435       .  S
C1326      C1327   1.406       .  A
C1326      H1331   1.083       .  S
C1327      C1328   1.415       .  A
C1328      N1329   1.438       .  S
N1329      H1333   1.046       .  S
N1329      H1334   1.045       .  S
N1332      H1335   1.042       .  S
N1332      H1336   1.045       .  S
C1337      C1338   1.402       .  A
C1337      C1342   1.402       .  A
C1337      H1344   1.080       .  S
C1338      C1339   1.419       .  A
C1339      C1340   1.405       .  A
C1339      N1346   1.437       .  S
C1340      C1341   1.399       .  A
C1340      H1345   1.084       .  S
C1341      C1342   1.407       .  A
C1342      N1343   1.430       .  S
N1343      H1347   1.045       .  S
N1343      H1348   1.046       .  S
N1346      H1349   1.043       .  S
N1346      H1350   1.047       .  S
C1351      C1352   1.405       .  A
C1351      C1356   1.399       .  A
C1351      H1358   1.084       .  S
C1352      C1353   1.418       .  A
C1353      C1354   1.402       .  A
C1353      N1360   1.432       .  S
C1354      C1355   1.406       .  A
C1354      H1359   1.084       .  S
C1355      C1356   1.418       .  A
C1356      N1357   1.432       .  S
N1357      H1361   1.045       .  S
N1357      H1362   1.045       .  S
N1360      H1363   1.045       .  S
N1360      H1364   1.045       .  S
C1365      C1366   1.394       .  A
C1365      C1370   1.384       .  A
C1365      H1372   1.084       .  S
C1366      C1367   1.417       .  A
C1367      C1368   1.424       .  A
C1367      N1374   1.436       .  S
C1368      C1369   1.411       .  A
C1368      H1373   1.082       .  S
C1369      C1370   1.424       .  A
C1370      N1371   1.436       .  S
N1371      H1375   1.046       .  S
N1371      H1376   1.045       .  S
N1374      H1377   1.048       .  S
N1374      H1378   1.043       .  S
C1379      C1380   1.403       .  A
C1379      C1384   1.411       .  A
C1379      H1386   1.083       .  S
C1380      C1381   1.410       .  A
C1381      C1382   1.405       .  A
C1381      N1388   1.438       .  S
C1382      C1383   1.410       .  A
C1382      H1387   1.078       .  S
C1383      C1384   1.418       .  A
C1384      N1385   1.437       .  S
N1385      H1389   1.045       .  S
N1385      H1390   1.045       .  S
N1388      H1391   1.046       .  S
N1388      H1392   1.045       .  S
C1393      C1394   1.403       .  A
C1393      C1398   1.395       .  A
C1393      H1400   1.084       .  S
C1394      C1395   1.414       .  A
C1395      C1396   1.400       .  A
C1395      N1402   1.431       .  S
C1396      C1397   1.401       .  A
C1396      H1401   1.083       .  S
C1397      C1398   1.413       .  A
C1398      N1399   1.433       .  S
N1399      H1403   1.045       .  S
N1399      H1404   1.041       .  S
N1402      H1405   1.046       .  S
N1402      H1406   1.045       .  S
C1407      C1408   1.405       .  A
C1407      C1412   1.405       .  A
C1407      H1414   1.084       .  S
C1408      C1409   1.416       .  A
C1409      C1410   1.399       .  A
C1409      N1416   1.439       .  S
C1410      C1411   1.399       .  A
C1410      H1415   1.084       .  S
C1411      C1412   1.409       .  A
C1412      N1413   1.432       .  S
N1413      H1417   1.045       .  S
N1413      H1418   1.046       .  S
N1416      H1419   1.043       .  S
N1416      H1420   1.046       .  S
C1421      C1422   1.403       .  A
C1421      C1426   1.392       .  A
C1421      H1428   1.083       .  S
C1422      C1423   1.405       .  A
C1423      C1424   1.406       .  A
C1423      N1430   1.428       .  S
C1424      C1425   1.403       .  A
C1424      H1429   1.083       .  S
C1425      C1426   1.415       .  A
C1426      N1427   1.435       .  S
N1427      H1431   1.045       .  S
N1427      H1432   1.042       .  S
N1430      H1433   1.047       .  S
N1430      H1434   1.041       .  S
C1435      C1436   1.402       .  A
C1435      C1440   1.408       .  A
C1435      H1442   1.082       .  S
C1436      C1437   1.422       .  A
C1437      C1438   1.409       .  A
C1437      N1444   1.437       .  S
C1438      C1439   1.400       .  A
C1438      H1443   1.084       .  S
C1439      C1440   1.408       .  A
C1440      N1441   1.436       .  S
N1441      H1445   1.047       .  S
N1441      H1446   1.044       .  S
N1444      H1447   1.043       .  S
N1444      H1448   1.041       .  S
C1449      C1450   1.405       .  A
C1449      C1454   1.404       .  A
C1449      H1456   1.082       .  S
C1450      C1451   1.405       .  A
C1451      C1452   1.393       .  A
C1451      N1458   1.430       .  S
C1452      C1453   1.406       .  A
C1452      H1457   1.084       .  S
C1453      C1454   1.405       .  A
C1454      N1455   1.437       .  S
N1455      H1459   1.044       .  S
N1455      H1460   1.046       .  S
N1458      H1461   1.046       .  S
N1458      H1462   1.044       .  S
C1463      C1464   1.405       .  A
C1463      C1468   1.406       .  A
C1463      H1470   1.084       .  S
C1464      C1465   1.409       .  A
C1465      C1466   1.407       .  A
C1465      N1472   1.432       .  S
C1466      C1467   1.408       .  A
C1466      H1471   1.083       .  S
C1467      C1468   1.413       .  A
C1468      N1469   1.432       .  S
N1469      H1473   1.047       .  S
N1469      H1474   1.045       .  S
N1472      H1475   1.045       .  S
N1472      H1476   1.046       .  S
C1477      C1478   1.393       .  A
C1477      C1482   1.388       .  A
C1477      H1484   1.085       .  S
C1478      C1479   1.412       .  A
C1479      C1480   1.421       .  A
C1479      N1486   1.436       .  S
C1480      C1481   1.413       .  A
C1480      H1485   1.081       .  S
C1481      C1482   1.437       .  A
C1482      N1483   1.437       .  S
N1483      H1487   1.042       .  S
N1483      H1488   1.041       .  S
N1486      H1489   1.046       .  S
N1486      H1490   1.045       .  S
C1491      C1492   1.404       .  A
C1491      C1496   1.407       .  A
C1491      H1498   1.084       .  S
C1492      C1493   1.415       .  A
C1493      C1494   1.408       .  A
C1493      N1500   1.438       .  S
C1494      C1495   1.405       .  A
C1494      H1499   1.083       .  S
C1495      C1496   1.415       .  A
C1496      N1497   1.438       .  S
N1497      H1501   1.046       .  S
N1497      H1502   1.046       .  S
N1500      H1503   1.046       .  S
N1500      H1504   1.046       .  S
C1505      C1506   1.397       .  A
C1505      C1510   1.392       .  A
C1505      H1512   1.085       .  S
C1506      C1507   1.424       .  A
C1507      C1508   1.414       .  A
C1507      N1514   1.438       .  S
C1508      C1509   1.409       .  A
C1508      H1513   1.080       .  S
C1509      C1510   1.419       .  A
C1510      N1511   1.435       .  S
N1511      H1515   1.046       .  S
N1511      H1516   1.046       .  S
N1514      H1517   1.042       .  S
N1514      H1518   1.044       .  S
C1519      C1520   1.404       .  A
C1519      C1524   1.406       .  A
C1519      H1526   1.084       .  S
C1520      C1521   1.416       .  A
C1521      C1522   1.400       .  A
C1521      N1528   1.433       .  S
C1522      C1523   1.410       .  A
C1522      H1527   1.081       .  S
C1523      C1524   1.425       .  A
C1524      N1525   1.438       .  S
N1525      H1529   1.044       .  S
N1525      H1530   1.044       .  S
N1528      H1531   1.045       .  S
N1528      H1532   1.045       .  S
C1533      C1534   1.410       .  A
C1533      C1538   1.406       .  A
C1533      H1540   1.083       .  S
C1534      C1535   1.423       .  A
C1535      C1536   1.407       .  A
C1535      N1542   1.437       .  S
C1536      C1537   1.405       .  A
C1536      H1541   1.084       .  S
C1537      C1538   1.413       .  A
C1538      N1539   1.438       .  S
N1539      H1543   1.047       .  S
N1539      H1544   1.044       .  S
N1542      H1545   1.044       .  S
N1542      H1546   1.046       .  S
C1547      C1548   1.407       .  A
C1547      C1552   1.409       .  A
C1547      H1554   1.084       .  S
C1548      C1549   1.414       .  A
C1549      C1550   1.389       .  A
C1549      N1556   1.433       .  S
C1550      C1551   1.405       .  A
C1550      H1555   1.083       .  S
C1551      C1552   1.408       .  A
C1552      N1553   1.432       .  S
N1553      H1557   1.046       .  S
N1553      H1558   1.045       .  S
N1556      H1559   1.039       .  S
N1556      H1560   1.043       .  S
C1561      C1562   1.404       .  A
C1561      C1566   1.405       .  A
C1561      H1568   1.080       .  S
C1562      C1563   1.417       .  A
C1563      C1564   1.400       .  A
C1563      N1570   1.439       .  S
C1564      C1565   1.402       .  A
C1564      H1569   1.084       .  S
C1565      C1566   1.405       .  A
C1566      N1567   1.436       .  S
N1567      H1571   1.044       .  S
N1567      H1572   1.044       .  S
N1570      H1573   1.044       .  S
N1570      H1574   1.046       .  S
C1575      C1576   1.402       .  A
C1575      C1580   1.407       .  A
C1575      H1582   1.083       .  S
C1576      C1577   1.408       .  A
C1577      C1578   1.405       .  A
C1577      N1584   1.432       .  S
C1578      C1579   1.401       .  A
C1578      H1583   1.084       .  S
C1579      C1580   1.417       .  A
C1580      N1581   1.438       .  S
N1581      H1585   1.045       .  S
N1581      H1586   1.044       .  S
N1584      H1587   1.046       .  S
N1584      H1588   1.045       .  S
C1589      C1590   1.405       .  A
C1589      C1594   1.393       .  A
C1589      H1596   1.084       .  S
C1590      C1591   1.408       .  A
C1591      C1592   1.398       .  A
C1591      N1598   1.431       .  S
C1592      C1593   1.403       .  A
C1592      H1597   1.082       .  S
C1593      C1594   1.406       .  A
C1594      N1595   1.432       .  S
N1595      H1599   1.046       .  S
N1595      H1600   1.045       .  S
N1598      H1601   1.046       .  S
N1598      H1602   1.044       .  S
C1603      C1604   1.393       .  A
C1603      C1608   1.388       .  A
C1603      H1610   1.085       .  S
C1604      C1605   1.417       .  A
C1605      C1606   1.424       .  A
C1605      N1612   1.436       .  S
C1606      C1607   1.410       .  A
C1606      H1611   1.081       .  S
C1607      C1608   1.424       .  A
C1608      N1609   1.436       .  S
N1609      H1613   1.046       .  S
N1609      H1614   1.045       .  S
N1612      H1615   1.044       .  S
N1612      H1616   1.046       .  S
C1617      C1618   1.405       .  A
C1617      C1622   1.408       .  A
C1617      H1624   1.084       .  S
C1618      C1619   1.411       .  A
C1619      C1620   1.404       .  A
C1619      N1626   1.438       .  S
C1620      C1621   1.410       .  A
C1620      H1625   1.082       .  S
C1621      C1622   1.422       .  A
C1622      N1623   1.437       .  S
N1623      H1627   1.045       .  S
N1623      H1628   1.044       .  S
N1626      H1629   1.045       .  S
N1626      H1630   1.046       .  S
C1631      C1632   1.407       .  A
C1631      C1636   1.398       .  A
C1631      H1638   1.084       .  S
C1632      C1633   1.408       .  A
C1633      C1634   1.405       .  A
C1633      N1640   1.431       .  S
C1634      C1635   1.402       .  A
C1634      H1639   1.084       .  S
C1635      C1636   1.402       .  A
C1636      N1637   1.432       .  S
N1637      H1641   1.045       .  S
N1637      H1642   1.046       .  S
N1640      H1643   1.045       .  S
N1640      H1644   1.046       .  S
C1645      C1646   1.406       .  A
C1645      C1650   1.410       .  A
C1645      H1652   1.083       .  S
C1646      C1647   1.411       .  A
C1647      C1648   1.404       .  A
C1647      N1654   1.432       .  S
C1648      C1649   1.406       .  A
C1648      H1653   1.084       .  S
C1649      C1650   1.416       .  A
C1650      N1651   1.438       .  S
N1651      H1655   1.046       .  S
N1651      H1656   1.045       .  S
N1654      H1657   1.046       .  S
N1654      H1658   1.045       .  S
C1659      C1660   1.410       .  A
C1659      C1664   1.399       .  A
C1659      H1666   1.078       .  S
C1660      C1661   1.422       .  A
C1661      C1662   1.407       .  A
C1661      N1668   1.434       .  S
C1662      C1663   1.407       .  A
C1662      H1667   1.083       .  S
C1663      C1664   1.409       .  A
C1664      N1665   1.433       .  S
N1665      H1669   1.045       .  S
N1665      H1670   1.046       .  S
N1668      H1671   1.042       .  S
N1668      H1672   1.045       .  S
C1673      C1674   1.403       .  A
C1673      C1678   1.409       .  A
C1673      H1680   1.084       .  S
C1674      C1675   1.407       .  A
C1675      C1676   1.404       .  A
C1675      N1682   1.438       .  S
C1676      C1677   1.412       .  A
C1676      H1681   1.080       .  S
C1677      C1678   1.425       .  A
C1678      N1679   1.437       .  S
N1679      H1683   1.045       .  S
N1679      H1684   1.043       .  S
N1682      H1685   1.044       .  S
N1682      H1686   1.047       .  S
C1687      C1688   1.396       .  A
C1687      C1692   1.398       .  A
C1687      H1694   1.084       .  S
C1688      C1689   1.407       .  A
C1689      C1690   1.407       .  A
C1689      N1696   1.431       .  S
C1690      C1691   1.405       .  A
C1690      H1695   1.083       .  S
C1691      C1692   1.417       .  A
C1692      N1693   1.433       .  S
N1693      H1697   1.046       .  S
N1693      H1698   1.045       .  S
N1696      H1699   1.046       .  S
N1696      H1700   1.045       .  S
C1701      C1702   1.408       .  A
C1701      C1706   1.411       .  A
C1701      H1708   1.083       .  S
C1702      C1703   1.418       .  A
C1703      C1704   1.398       .  A
C1703      N1710   1.432       .  S
C1704      C1705   1.407       .  A
C1704      H1709   1.082       .  S
C1705      C1706   1.415       .  A
C1706      N1707   1.437       .  S
N1707      H1711   1.046       .  S
N1707      H1712   1.045       .  S
N1710      H1713   1.045       .  S
N1710      H1714   1.045       .  S
C1715      C1716   1.405       .  A
C1715      C1720   1.408       .  A
C1715      H1722   1.083       .  S
C1716      C1717   1.415       .  A
C1717      C1718   1.406       .  A
C1717      N1724   1.438       .  S
C1718      C1719   1.404       .  A
C1718      H1723   1.083       .  S
C1719      C1720   1.416       .  A
C1720      N1721   1.438       .  S
N1721      H1725   1.046       .  S
N1721      H1726   1.045       .  S
N1724      H1727   1.045       .  S
N1724      H1728   1.046       .  S
C1729      C1730   1.403       .  A
C1729      C1734   1.407       .  A
C1729      H1736   1.084       .  S
C1730      C1731   1.410       .  A
C1731      C1732   1.407       .  A
C1731      N1738   1.438       .  S
C1732      C1733   1.411       .  A
C1732      H1737   1.080       .  S
C1733      C1734   1.417       .  A
C1734      N1735   1.437       .  S
N1735      H1739   1.047       .  S
N1735      H1740   1.044       .  S
N1738      H1741   1.046       .  S
N1738      H1742   1.045       .  S
C1743      C1744   1.399       .  A
C1743      C1748   1.400       .  A
C1743      H1750   1.084       .  S
C1744      C1745   1.412       .  A
C1745      C1746   1.415       .  A
C1745      N1752   1.437       .  S
C1746      C1747   1.405       .  A
C1746      H1751   1.083       .  S
C1747      C1748   1.414       .  A
C1748      N1749   1.427       .  S
N1749      H1753   1.044       .  S
N1749      H1754   1.046       .  S
N1752      H1755   1.042       .  S
N1752      H1756   1.047       .  S
C1757      C1758   1.408       .  A
C1757      C1762   1.404       .  A
C1757      H1764   1.081       .  S
C1758      C1759   1.427       .  A
C1759      C1760   1.409       .  A
C1759      N1766   1.438       .  S
C1760      C1761   1.405       .  A
C1760      H1765   1.084       .  S
C1761      C1762   1.410       .  A
C1762      N1763   1.432       .  S
N1763      H1767   1.045       .  S
N1763      H1768   1.046       .  S
N1766      H1769   1.044       .  S
N1766      H1770   1.045       .  S
C1771      C1772   1.404       .  A
C1771      C1776   1.395       .  A
C1771      H1778   1.084       .  S
C1772      C1773   1.407       .  A
C1773      C1774   1.408       .  A
C1773      N1780   1.431       .  S
C1774      C1775   1.403       .  A
C1774      H1779   1.084       .  S
C1775      C1776   1.407       .  A
C1776      N1777   1.433       .  S
N1777      H1781   1.046       .  S
N1777      H1782   1.046       .  S
N1780      H1783   1.045       .  S
N1780      H1784   1.046       .  S
C1785      C1786   1.411       .  A
C1785      C1790   1.421       .  A
C1785      H1792   1.080       .  S
C1786      C1787   1.422       .  A
C1787      C1788   1.390       .  A
C1787      N1794   1.436       .  S
C1788      C1789   1.395       .  A
C1788      H1793   1.085       .  S
C1789      C1790   1.414       .  A
C1790      N1791   1.436       .  S
N1791      H1795   1.046       .  S
N1791      H1796   1.045       .  S
N1794      H1797   1.046       .  S
N1794      H1798   1.045       .  S
C1799      C1800   1.397       .  A
C1799      C1804   1.399       .  A
C1799      H1806   1.082       .  S
C1800      C1801   1.405       .  A
C1801      C1802   1.400       .  A
C1801      N1808   1.431       .  S
C1802      C1803   1.401       .  A
C1802      H1807   1.083       .  S
C1803      C1804   1.413       .  A
C1804      N1805   1.438       .  S
N1805      H1809   1.046       .  S
N1805      H1810   1.044       .  S
N1808      H1811   1.045       .  S
N1808      H1812   1.046       .  S
C1813      C1814   1.401       .  A
C1813      C1818   1.394       .  A
C1813      H1820   1.082       .  S
C1814      C1815   1.415       .  A
C1815      C1816   1.399       .  A
C1815      N1822   1.433       .  S
C1816      C1817   1.405       .  A
C1816      H1821   1.084       .  S
C1817      C1818   1.409       .  A
C1818      N1819   1.429       .  S
N1819      H1823   1.046       .  S
N1819      H1824   1.045       .  S
N1822      H1825   1.045       .  S
N1822      H1826   1.041       .  S
C1827      C1828   1.404       .  A
C1827      C1832   1.413       .  A
C1827      H1834   1.083       .  S
C1828      C1829   1.407       .  A
C1829      C1830   1.407       .  A
C1829      N1836   1.432       .  S
C1830      C1831   1.404       .  A
C1830      H1835   1.083       .  S
C1831      C1832   1.411       .  A
C1832      N1833   1.436       .  S
N1833      H1837   1.044       .  S
N1833      H1838   1.044       .  S
N1836      H1839   1.045       .  S
N1836      H1840   1.046       .  S
C1841      C1842   1.404       .  A
C1841      C1846   1.410       .  A
C1841      H1848   1.084       .  S
C1842      C1843   1.411       .  A
C1843      C1844   1.409       .  A
C1843      N1850   1.437       .  S
C1844      C1845   1.402       .  A
C1844      H1849   1.083       .  S
C1845      C1846   1.408       .  A
C1846      N1847   1.431       .  S
N1847      H1851   1.045       .  S
N1847      H1852   1.045       .  S
N1850      H1853   1.046       .  S
N1850      H1854   1.045       .  S
C1855      C1856   1.402       .  A
C1855      C1860   1.402       .  A
C1855      H1862   1.081       .  S
C1856      C1857   1.414       .  A
C1857      C1858   1.390       .  A
C1857      N1864   1.432       .  S
C1858      C1859   1.401       .  A
C1858      H1863   1.083       .  S
C1859      C1860   1.410       .  A
C1860      N1861   1.426       .  S
N1861      H1865   1.044       .  S
N1861      H1866   1.046       .  S
N1864      H1867   1.045       .  S
N1864      H1868   1.046       .  S
C1869      C1870   1.404       .  A
C1869      C1874   1.403       .  A
C1869      H1876   1.084       .  S
C1870      C1871   1.399       .  A
C1871      C1872   1.395       .  A
C1871      N1878   1.433       .  S
C1872      C1873   1.408       .  A
C1872      H1877   1.084       .  S
C1873      C1874   1.405       .  A
C1874      N1875   1.432       .  S
N1875      H1879   1.046       .  S
N1875      H1880   1.045       .  S
N1878      H1881   1.046       .  S
N1878      H1882   1.046       .  S
C1883      C1884   1.408       .  A
C1883      C1888   1.414       .  A
C1883      H1890   1.083       .  S
C1884      C1885   1.412       .  A
C1885      C1886   1.403       .  A
C1885      N1892   1.432       .  S
C1886      C1887   1.405       .  A
C1886      H1891   1.084       .  S
C1887      C1888   1.416       .  A
C1888      N1889   1.437       .  S
N1889      H1893   1.046       .  S
N1889      H1894   1.045       .  S
N1892      H1895   1.046       .  S
N1892      H1896   1.045       .  S
C1897      C1898   1.405       .  A
C1897      C1902   1.407       .  A
C1897      H1904   1.084       .  S
C1898      C1899   1.408       .  A
C1899      C1900   1.406       .  A
C1899      N1906   1.432       .  S
C1900      C1901   1.408       .  A
C1900      H1905   1.084       .  S
C1901      C1902   1.414       .  A
C1902      N1903   1.438       .  S
N1903      H1907   1.046       .  S
N1903      H1908   1.045       .  S
N1906      H1909   1.045       .  S
N1906      H1910   1.046       .  S
C1911      C1912   1.409       .  A
C1911      C1916   1.424       .  A
C1911      H1918   1.081       .  S
C1912      C1913   1.424       .  A
C1913      C1914   1.391       .  A
C1913      N1920   1.436       .  S
C1914      C1915   1.397       .  A
C1914      H1919   1.084       .  S
C1915      C1916   1.418       .  A
C1916      N1917   1.436       .  S
N1917      H1921   1.045       .  S
N1917      H1922   1.046       .  S
N1920      H1923   1.046       .  S
N1920      H1924   1.046       .  S
C1925      C1926   1.405       .  A
C1925      C1930   1.408       .  A
C1925      H1932   1.083       .  S
C1926      C1927   1.415       .  A
C1927      C1928   1.409       .  A
C1927      N1934   1.438       .  S
C1928      C1929   1.406       .  A
C1928      H1933   1.083       .  S
C1929      C1930   1.414       .  A
C1930      N1931   1.438       .  S
N1931      H1935   1.045       .  S
N1931      H1936   1.046       .  S
N1934      H1937   1.046       .  S
N1934      H1938   1.046       .  S
C1939      C1940   1.405       .  A
C1939      C1944   1.405       .  A
C1939      H1946   1.084       .  S
C1940      C1941   1.411       .  A
C1941      C1942   1.404       .  A
C1941      N1948   1.432       .  S
C1942      C1943   1.405       .  A
C1942      H1947   1.084       .  S
C1943      C1944   1.412       .  A
C1944      N1945   1.432       .  S
N1945      H1949   1.046       .  S
N1945      H1950   1.045       .  S
N1948      H1951   1.046       .  S
N1948      H1952   1.045       .  S
C1953      C1954   1.391       .  A
C1953      C1958   1.387       .  A
C1953      H1960   1.085       .  S
C1954      C1955   1.417       .  A
C1955      C1956   1.423       .  A
C1955      N1962   1.436       .  S
C1956      C1957   1.408       .  A
C1956      H1961   1.082       .  S
C1957      C1958   1.428       .  A
C1958      N1959   1.436       .  S
N1959      H1963   1.046       .  S
N1959      H1964   1.045       .  S
N1962      H1965   1.047       .  S
N1962      H1966   1.044       .  S
C1967      C1968   1.404       .  A
C1967      C1972   1.399       .  A
C1967      H1974   1.084       .  S
C1968      C1969   1.412       .  A
C1969      C1970   1.401       .  A
C1969      N1976   1.431       .  S
C1970      C1971   1.400       .  A
C1970      H1975   1.083       .  S
C1971      C1972   1.406       .  A
C1972      N1973   1.432       .  S
N1973      H1977   1.046       .  S
N1973      H1978   1.045       .  S
N1976      H1979   1.046       .  S
N1976      H1980   1.045       .  S
C1981      C1982   1.402       .  A
C1981      C1986   1.410       .  A
C1981      H1988   1.084       .  S
C1982      C1983   1.409       .  A
C1983      C1984   1.406       .  A
C1983      N1990   1.432       .  S
C1984      C1985   1.401       .  A
C1984      H1989   1.083       .  S
C1985      C1986   1.411       .  A
C1986      N1987   1.431       .  S
N1987      H1991   1.045       .  S
N1987      H1992   1.045       .  S
N1990      H1993   1.045       .  S
N1990      H1994   1.046       .  S
C1995      C1996   1.412       .  A
C1995      C2000   1.402       .  A
C1995      H2002   1.081       .  S
C1996      C1997   1.425       .  A
C1997      C1998   1.407       .  A
C1997      N2004   1.438       .  S
C1998      C1999   1.404       .  A
C1998      H2003   1.084       .  S
C1999      C2000   1.414       .  A
C2000      N2001   1.432       .  S
N2001      H2005   1.046       .  S
N2001      H2006   1.045       .  S
N2004      H2007   1.043       .  S
N2004      H2008   1.046       .  S
C2009      C2010   1.401       .  A
C2009      C2014   1.405       .  A
C2009      H2016   1.083       .  S
C2010      C2011   1.408       .  A
C2011      C2012   1.408       .  A
C2011      N2018   1.431       .  S
C2012      C2013   1.404       .  A
C2012      H2017   1.084       .  S
C2013      C2014   1.408       .  A
C2014      N2015   1.436       .  S
N2015      H2019   1.046       .  S
N2015      H2020   1.045       .  S
N2018      H2021   1.046       .  S
N2018      H2022   1.045       .  S
C2023      C2024   1.402       .  A
C2023      C2028   1.404       .  A
C2023      H2030   1.082       .  S
C2024      C2025   1.412       .  A
C2025      C2026   1.400       .  A
C2025      N2032   1.439       .  S
C2026      C2027   1.404       .  A
C2026      H2031   1.083       .  S
C2027      C2028   1.408       .  A
C2028      N2029   1.429       .  S
N2029      H2033   1.046       .  S
N2029      H2034   1.045       .  S
N2032      H2035   1.046       .  S
N2032      H2036   1.045       .  S
C2037      C2038   1.409       .  A
C2037      C2042   1.404       .  A
C2037      H2044   1.083       .  S
C2038      C2039   1.420       .  A
C2039      C2040   1.404       .  A
C2039      N2046   1.437       .  S
C2040      C2041   1.404       .  A
C2040      H2045   1.084       .  S
C2041      C2042   1.412       .  A
C2042      N2043   1.432       .  S
N2043      H2047   1.046       .  S
N2043      H2048   1.045       .  S
N2046      H2049   1.045       .  S
N2046      H2050   1.046       .  S
C2051      C2052   1.403       .  A
C2051      C2056   1.406       .  A
C2051      H2058   1.084       .  S
C2052      C2053   1.405       .  A
C2053      C2054   1.399       .  A
C2053      N2060   1.437       .  S
C2054      C2055   1.406       .  A
C2054      H2059   1.083       .  S
C2055      C2056   1.408       .  A
C2056      N2057   1.432       .  S
N2057      H2061   1.046       .  S
N2057      H2062   1.045       .  S
N2060      H2063   1.046       .  S
N2060      H2064   1.043       .  S
C2065      C2066   1.400       .  A
C2065      C2070   1.398       .  A
C2065      H2072   1.084       .  S
C2066      C2067   1.413       .  A
C2067      C2068   1.399       .  A
C2067      N2074   1.440       .  S
C2068      C2069   1.403       .  A
C2068      H2073   1.084       .  S
C2069      C2070   1.414       .  A
C2070      N2071   1.430       .  S
N2071      H2075   1.043       .  S
N2071      H2076   1.042       .  S
N2074      H2077   1.043       .  S
N2074      H2078   1.046       .  S
C2079      C2080   1.404       .  A
C2079      C2084   1.413       .  A
C2079      H2086   1.084       .  S
C2080      C2081   1.406       .  A
C2081      C2082   1.401       .  A
C2081      N2088   1.432       .  S
C2082      C2083   1.402       .  A
C2082      H2087   1.084       .  S
C2083      C2084   1.410       .  A
C2084      N2085   1.437       .  S
N2085      H2089   1.046       .  S
N2085      H2090   1.045       .  S
N2088      H2091   1.046       .  S
N2088      H2092   1.046       .  S
C2093      C2094   1.404       .  A
C2093      C2098   1.400       .  A
C2093      H2100   1.083       .  S
C2094      C2095   1.407       .  A
C2095      C2096   1.402       .  A
C2095      N2102   1.437       .  S
C2096      C2097   1.403       .  A
C2096      H2101   1.084       .  S
C2097      C2098   1.407       .  A
C2098      N2099   1.432       .  S
N2099      H2103   1.046       .  S
N2099      H2104   1.046       .  S
N2102      H2105   1.046       .  S
N2102      H2106   1.046       .  S
C2107      C2108   1.405       .  A
C2107      C2112   1.408       .  A
C2107      H2114   1.084       .  S
C2108      C2109   1.415       .  A
C2109      C2110   1.405       .  A
C2109      N2116   1.437       .  S
C2110      C2111   1.403       .  A
C2110      H2115   1.084       .  S
C2111      C2112   1.416       .  A
C2112      N2113   1.438       .  S
N2113      H2117   1.046       .  S
N2113      H2118   1.043       .  S
N2116      H2119   1.044       .  S
N2116      H2120   1.045       .  S
C2121      C2122   1.397       .  A
C2121      C2126   1.398       .  A
C2121      H2128   1.084       .  S
C2122      C2123   1.405       .  A
C2123      C2124   1.400       .  A
C2123      N2130   1.430       .  S
C2124      C2125   1.401       .  A
C2124      H2129   1.080       .  S
C2125      C2126   1.416       .  A
C2126      N2127   1.433       .  S
N2127      H2131   1.045       .  S
N2127      H2132   1.046       .  S
N2130      H2133   1.046       .  S
N2130      H2134   1.045       .  S
C2135      C2136   1.404       .  A
C2135      C2140   1.408       .  A
C2135      H2142   1.084       .  S
C2136      C2137   1.413       .  A
C2137      C2138   1.411       .  A
C2137      N2144   1.438       .  S
C2138      C2139   1.407       .  A
C2138      H2143   1.083       .  S
C2139      C2140   1.417       .  A
C2140      N2141   1.438       .  S
N2141      H2145   1.046       .  S
N2141      H2146   1.045       .  S
N2144      H2147   1.046       .  S
N2144      H2148   1.045       .  S
C2149      C2150   1.390       .  A
C2149      C2154   1.393       .  A
C2149      H2156   1.086       .  S
C2150      C2151   1.412       .  A
C2151      C2152   1.423       .  A
C2151      N2158   1.436       .  S
C2152      C2153   1.413       .  A
C2152      H2157   1.082       .  S
C2153      C2154   1.428       .  A
C2154      N2155   1.434       .  S
N2155      H2159   1.046       .  S
N2155      H2160   1.045       .  S
N2158      H2161   1.046       .  S
N2158      H2162   1.045       .  S
C2163      C2164   1.406       .  A
C2163      C2168   1.410       .  A
C2163      H2170   1.083       .  S
C2164      C2165   1.416       .  A
C2165      C2166   1.408       .  A
C2165      N2172   1.438       .  S
C2166      C2167   1.405       .  A
C2166      H2171   1.083       .  S
C2167      C2168   1.416       .  A
C2168      N2169   1.438       .  S
N2169      H2173   1.046       .  S
N2169      H2174   1.045       .  S
N2172      H2175   1.046       .  S
N2172      H2176   1.046       .  S
C2177      C2178   1.403       .  A
C2177      C2182   1.405       .  A
C2177      H2184   1.084       .  S
C2178      C2179   1.416       .  A
C2179      C2180   1.399       .  A
C2179      N2186   1.433       .  S
C2180      C2181   1.410       .  A
C2180      H2185   1.080       .  S
C2181      C2182   1.425       .  A
C2182      N2183   1.439       .  S
N2183      H2187   1.046       .  S
N2183      H2188   1.042       .  S
N2186      H2189   1.045       .  S
N2186      H2190   1.046       .  S
C2191      C2192   1.409       .  A
C2191      C2196   1.408       .  A
C2191      H2198   1.082       .  S
C2192      C2193   1.423       .  A
C2193      C2194   1.409       .  A
C2193      N2200   1.438       .  S
C2194      C2195   1.406       .  A
C2194      H2199   1.083       .  S
C2195      C2196   1.416       .  A
C2196      N2197   1.438       .  S
N2197      H2201   1.046       .  S
N2197      H2202   1.045       .  S
N2200      H2203   1.045       .  S
N2200      H2204   1.045       .  S
C2205      C2206   1.411       .  A
C2205      C2210   1.403       .  A
C2205      H2212   1.083       .  S
C2206      C2207   1.418       .  A
C2207      C2208   1.410       .  A
C2207      N2214   1.433       .  S
C2208      C2209   1.405       .  A
C2208      H2213   1.084       .  S
C2209      C2210   1.417       .  A
C2210      N2211   1.432       .  S
N2211      H2215   1.045       .  S
N2211      H2216   1.045       .  S
N2214      H2217   1.045       .  S
N2214      H2218   1.046       .  S
C2219      C2220   1.401       .  A
C2219      C2224   1.407       .  A
C2219      H2226   1.084       .  S
C2220      C2221   1.403       .  A
C2221      C2222   1.399       .  A
C2221      N2228   1.433       .  S
C2222      C2223   1.410       .  A
C2222      H2227   1.083       .  S
C2223      C2224   1.414       .  A
C2224      N2225   1.430       .  S
N2225      H2229   1.046       .  S
N2225      H2230   1.045       .  S
N2228      H2231   1.045       .  S
N2228      H2232   1.046       .  S
C2233      C2234   1.400       .  A
C2233      C2238   1.401       .  A
C2233      H2240   1.084       .  S
C2234      C2235   1.408       .  A
C2235      C2236   1.407       .  A
C2235      N2242   1.435       .  S
C2236      C2237   1.402       .  A
C2236      H2241   1.082       .  S
C2237      C2238   1.414       .  A
C2238      N2239   1.439       .  S
N2239      H2243   1.048       .  S
N2239      H2244   1.043       .  S
N2242      H2245   1.045       .  S
N2242      H2246   1.045       .  S
C2247      C2248   1.400       .  A
C2247      C2252   1.405       .  A
C2247      H2254   1.082       .  S
C2248      C2249   1.409       .  A
C2249      C2250   1.412       .  A
C2249      N2256   1.431       .  S
C2250      C2251   1.405       .  A
C2250      H2255   1.084       .  S
C2251      C2252   1.408       .  A
C2252      N2253   1.432       .  S
N2253      H2257   1.046       .  S
N2253      H2258   1.045       .  S
N2256      H2259   1.045       .  S
N2256      H2260   1.046       .  S
C2261      C2262   1.402       .  A
C2261      C2266   1.407       .  A
C2261      H2268   1.084       .  S
C2262      C2263   1.402       .  A
C2263      C2264   1.393       .  A
C2263      N2270   1.433       .  S
C2264      C2265   1.409       .  A
C2264      H2269   1.083       .  S
C2265      C2266   1.412       .  A
C2266      N2267   1.430       .  S
N2267      H2271   1.045       .  S
N2267      H2272   1.046       .  S
N2270      H2273   1.045       .  S
N2270      H2274   1.046       .  S
C2275      C2276   1.406       .  A
C2275      C2280   1.405       .  A
C2275      H2282   1.084       .  S
C2276      C2277   1.419       .  A
C2277      C2278   1.407       .  A
C2277      N2284   1.432       .  S
C2278      C2279   1.407       .  A
C2278      H2283   1.084       .  S
C2279      C2280   1.413       .  A
C2280      N2281   1.432       .  S
N2281      H2285   1.045       .  S
N2281      H2286   1.046       .  S
N2284      H2287   1.046       .  S
N2284      H2288   1.045       .  S
C2289      C2290   1.406       .  A
C2289      C2294   1.408       .  A
C2289      H2296   1.084       .  S
C2290      C2291   1.418       .  A
C2291      C2292   1.401       .  A
C2291      N2298   1.432       .  S
C2292      C2293   1.409       .  A
C2292      H2297   1.082       .  S
C2293      C2294   1.424       .  A
C2294      N2295   1.438       .  S
N2295      H2299   1.046       .  S
N2295      H2300   1.044       .  S
N2298      H2301   1.042       .  S
N2298      H2302   1.048       .  S
C2303      C2304   1.407       .  A
C2303      C2308   1.394       .  A
C2303      H2310   1.084       .  S
C2304      C2305   1.421       .  A
C2305      C2306   1.407       .  A
C2305      N2312   1.436       .  S
C2306      C2307   1.402       .  A
C2306      H2311   1.084       .  S
C2307      C2308   1.403       .  A
C2308      N2309   1.433       .  S
N2309      H2313   1.046       .  S
N2309      H2314   1.045       .  S
N2312      H2315   1.041       .  S
N2312      H2316   1.043       .  S
C2317      C2318   1.402       .  A
C2317      C2322   1.405       .  A
C2317      H2324   1.083       .  S
C2318      C2319   1.417       .  A
C2319      C2320   1.405       .  A
C2319      N2326   1.436       .  S
C2320      C2321   1.401       .  A
C2320      H2325   1.084       .  S
C2321      C2322   1.415       .  A
C2322      N2323   1.438       .  S
N2323      H2327   1.043       .  S
N2323      H2328   1.046       .  S
N2326      H2329   1.044       .  S
N2326      H2330   1.044       .  S
C2331      C2332   1.407       .  A
C2331      C2336   1.407       .  A
C2331      H2338   1.084       .  S
C2332      C2333   1.412       .  A
C2333      C2334   1.395       .  A
C2333      N2340   1.433       .  S
C2334      C2335   1.399       .  A
C2334      H2339   1.083       .  S
C2335      C2336   1.411       .  A
C2336      N2337   1.432       .  S
N2337      H2341   1.046       .  S
N2337      H2342   1.045       .  S
N2340      H2343   1.046       .  S
N2340      H2344   1.046       .  S
C2345      C2346   1.399       .  A
C2345      C2350   1.397       .  A
C2345      H2352   1.084       .  S
C2346      C2347   1.417       .  A
C2347      C2348   1.403       .  A
C2347      N2354   1.438       .  S
C2348      C2349   1.400       .  A
C2348      H2353   1.084       .  S
C2349      C2350   1.412       .  A
C2350      N2351   1.431       .  S
N2351      H2355   1.043       .  S
N2351      H2356   1.044       .  S
N2354      H2357   1.045       .  S
N2354      H2358   1.043       .  S
C2359      C2360   1.405       .  A
C2359      C2364   1.405       .  A
C2359      H2366   1.083       .  S
C2360      C2361   1.413       .  A
C2361      C2362   1.406       .  A
C2361      N2368   1.437       .  S
C2362      C2363   1.410       .  A
C2362      H2367   1.082       .  S
C2363      C2364   1.413       .  A
C2364      N2365   1.433       .  S
N2365      H2369   1.046       .  S
N2365      H2370   1.045       .  S
N2368      H2371   1.044       .  S
N2368      H2372   1.048       .  S
C2373      C2374   1.403       .  A
C2373      C2378   1.391       .  A
C2373      H2380   1.083       .  S
C2374      C2375   1.412       .  A
C2375      C2376   1.400       .  A
C2375      N2382   1.429       .  S
C2376      C2377   1.402       .  A
C2376      H2381   1.083       .  S
C2377      C2378   1.406       .  A
C2378      N2379   1.428       .  S
N2379      H2383   1.043       .  S
N2379      H2384   1.046       .  S
N2382      H2385   1.043       .  S
N2382      H2386   1.043       .  S
C2387      C2388   1.404       .  A
C2387      C2392   1.410       .  A
C2387      H2394   1.084       .  S
C2388      C2389   1.412       .  A
C2389      C2390   1.409       .  A
C2389      N2396   1.438       .  S
C2390      C2391   1.406       .  A
C2390      H2395   1.083       .  S
C2391      C2392   1.417       .  A
C2392      N2393   1.438       .  S
N2393      H2397   1.047       .  S
N2393      H2398   1.044       .  S
N2396      H2399   1.045       .  S
N2396      H2400   1.046       .  S
C2401      C2402   1.406       .  A
C2401      C2406   1.411       .  A
C2401      H2408   1.083       .  S
C2402      C2403   1.417       .  A
C2403      C2404   1.409       .  A
C2403      N2410   1.438       .  S
C2404      C2405   1.406       .  A
C2404      H2409   1.083       .  S
C2405      C2406   1.416       .  A
C2406      N2407   1.437       .  S
N2407      H2411   1.046       .  S
N2407      H2412   1.045       .  S
N2410      H2413   1.045       .  S
N2410      H2414   1.046       .  S
C2415      C2416   1.409       .  A
C2415      C2420   1.402       .  A
C2415      H2422   1.082       .  S
C2416      C2417   1.417       .  A
C2417      C2418   1.411       .  A
C2417      N2424   1.437       .  S
C2418      C2419   1.405       .  A
C2418      H2423   1.083       .  S
C2419      C2420   1.409       .  A
C2420      N2421   1.432       .  S
N2421      H2425   1.046       .  S
N2421      H2426   1.046       .  S
N2424      H2427   1.045       .  S
N2424      H2428   1.046       .  S
C2429      C2430   1.398       .  A
C2429      C2434   1.392       .  A
C2429      H2436   1.084       .  S
C2430      C2431   1.419       .  A
C2431      C2432   1.422       .  A
C2431      N2438   1.436       .  S
C2432      C2433   1.410       .  A
C2432      H2437   1.081       .  S
C2433      C2434   1.422       .  A
C2434      N2435   1.435       .  S
N2435      H2439   1.046       .  S
N2435      H2440   1.046       .  S
N2438      H2441   1.043       .  S
N2438      H2442   1.048       .  S
C2443      C2444   1.401       .  A
C2443      C2448   1.403       .  A
C2443      H2450   1.084       .  S
C2444      C2445   1.404       .  A
C2445      C2446   1.406       .  A
C2445      N2452   1.431       .  S
C2446      C2447   1.403       .  A
C2446      H2451   1.084       .  S
C2447      C2448   1.416       .  A
C2448      N2449   1.438       .  S
N2449      H2453   1.049       .  S
N2449      H2454   1.040       .  S
N2452      H2455   1.045       .  S
N2452      H2456   1.045       .  S
C2457      C2458   1.405       .  A
C2457      C2462   1.396       .  A
C2457      H2464   1.083       .  S
C2458      C2459   1.409       .  A
C2459      C2460   1.407       .  A
C2459      N2466   1.430       .  S
C2460      C2461   1.404       .  A
C2460      H2465   1.081       .  S
C2461      C2462   1.410       .  A
C2462      N2463   1.433       .  S
N2463      H2467   1.045       .  S
N2463      H2468   1.046       .  S
N2466      H2469   1.044       .  S
N2466      H2470   1.047       .  S
C2471      C2472   1.399       .  A
C2471      C2476   1.390       .  A
C2471      H2478   1.082       .  S
C2472      C2473   1.416       .  A
C2473      C2474   1.400       .  A
C2473      N2480   1.437       .  S
C2474      C2475   1.406       .  A
C2474      H2479   1.084       .  S
C2475      C2476   1.416       .  A
C2476      N2477   1.429       .  S
N2477      H2481   1.041       .  S
N2477      H2482   1.044       .  S
N2480      H2483   1.042       .  S
N2480      H2484   1.047       .  S
C2485      C2486   1.404       .  A
C2485      C2490   1.410       .  A
C2485      H2492   1.081       .  S
C2486      C2487   1.408       .  A
C2487      C2488   1.407       .  A
C2487      N2494   1.431       .  S
C2488      C2489   1.403       .  A
C2488      H2493   1.084       .  S
C2489      C2490   1.409       .  A
C2490      N2491   1.436       .  S
N2491      H2495   1.043       .  S
N2491      H2496   1.047       .  S
N2494      H2497   1.045       .  S
N2494      H2498   1.045       .  S
C2499      C2500   1.398       .  A
C2499      C2504   1.399       .  A
C2499      H2506   1.083       .  S
C2500      C2501   1.404       .  A
C2501      C2502   1.399       .  A
C2501      N2508   1.431       .  S
C2502      C2503   1.400       .  A
C2502      H2507   1.080       .  S
C2503      C2504   1.420       .  A
C2504      N2505   1.434       .  S
N2505      H2509   1.049       .  S
N2505      H2510   1.037       .  S
N2508      H2511   1.046       .  S
N2508      H2512   1.045       .  S
C2513      C2514   1.406       .  A
C2513      C2518   1.411       .  A
C2513      H2520   1.083       .  S
C2514      C2515   1.416       .  A
C2515      C2516   1.406       .  A
C2515      N2522   1.438       .  S
C2516      C2517   1.404       .  A
C2516      H2521   1.084       .  S
C2517      C2518   1.415       .  A
C2518      N2519   1.437       .  S
N2519      H2523   1.048       .  S
N2519      H2524   1.044       .  S
N2522      H2525   1.050       .  S
N2522      H2526   1.042       .  S
C2527      C2528   1.395       .  A
C2527      C2532   1.390       .  A
C2527      H2534   1.085       .  S
C2528      C2529   1.419       .  A
C2529      C2530   1.416       .  A
C2529      N2536   1.431       .  S
C2530      C2531   1.411       .  A
C2530      H2535   1.082       .  S
C2531      C2532   1.425       .  A
C2532      N2533   1.435       .  S
N2533      H2537   1.047       .  S
N2533      H2538   1.045       .  S
N2536      H2539   1.045       .  S
N2536      H2540   1.045       .  S
C2541      C2542   1.407       .  A
C2541      C2546   1.408       .  A
C2541      H2548   1.083       .  S
C2542      C2543   1.418       .  A
C2543      C2544   1.399       .  A
C2543      N2550   1.432       .  S
C2544      C2545   1.403       .  A
C2544      H2549   1.084       .  S
C2545      C2546   1.414       .  A
C2546      N2547   1.438       .  S
N2547      H2551   1.046       .  S
N2547      H2552   1.045       .  S
N2550      H2553   1.046       .  S
N2550      H2554   1.045       .  S
C2555      C2556   1.406       .  A
C2555      C2560   1.411       .  A
C2555      H2562   1.083       .  S
C2556      C2557   1.416       .  A
C2557      C2558   1.402       .  A
C2557      N2564   1.433       .  S
C2558      C2559   1.406       .  A
C2558      H2563   1.084       .  S
C2559      C2560   1.416       .  A
C2560      N2561   1.438       .  S
N2561      H2565   1.042       .  S
N2561      H2566   1.049       .  S
N2564      H2567   1.046       .  S
N2564      H2568   1.045       .  S
C2569      C2570   1.410       .  A
C2569      C2574   1.404       .  A
C2569      H2576   1.080       .  S
C2570      C2571   1.419       .  A
C2571      C2572   1.411       .  A
C2571      N2578   1.438       .  S
C2572      C2573   1.406       .  A
C2572      H2577   1.083       .  S
C2573      C2574   1.409       .  A
C2574      N2575   1.432       .  S
N2575      H2579   1.046       .  S
N2575      H2580   1.045       .  S
N2578      H2581   1.046       .  S
N2578      H2582   1.045       .  S
C2583      C2584   1.405       .  A
C2583      C2588   1.414       .  A
C2583      H2590   1.084       .  S
C2584      C2585   1.407       .  A
C2585      C2586   1.403       .  A
C2585      N2592   1.429       .  S
C2586      C2587   1.400       .  A
C2586      H2591   1.084       .  S
C2587      C2588   1.412       .  A
C2588      N2589   1.437       .  S
N2589      H2593   1.050       .  S
N2589      H2594   1.040       .  S
N2592      H2595   1.046       .  S
N2592      H2596   1.046       .  S
C2597      C2598   1.414       .  A
C2597      C2602   1.404       .  A
C2597      H2604   1.077       .  S
C2598      C2599   1.424       .  A
C2599      C2600   1.408       .  A
C2599      N2606   1.434       .  S
C2600      C2601   1.406       .  A
C2600      H2605   1.083       .  S
C2601      C2602   1.407       .  A
C2602      N2603   1.433       .  S
N2603      H2607   1.046       .  S
N2603      H2608   1.045       .  S
N2606      H2609   1.043       .  S
N2606      H2610   1.044       .  S
C2611      C2612   1.405       .  A
C2611      C2616   1.407       .  A
C2611      H2618   1.084       .  S
C2612      C2613   1.414       .  A
C2613      C2614   1.397       .  A
C2613      N2620   1.439       .  S
C2614      C2615   1.403       .  A
C2614      H2619   1.084       .  S
C2615      C2616   1.408       .  A
C2616      N2617   1.432       .  S
N2617      H2621   1.046       .  S
N2617      H2622   1.045       .  S
N2620      H2623   1.043       .  S
N2620      H2624   1.048       .  S
C2625      C2626   1.412       .  A
C2625      C2630   1.408       .  A
C2625      H2632   1.080       .  S
C2626      C2627   1.423       .  A
C2627      C2628   1.406       .  A
C2627      N2634   1.438       .  S
C2628      C2629   1.405       .  A
C2628      H2633   1.084       .  S
C2629      C2630   1.412       .  A
C2630      N2631   1.438       .  S
N2631      H2635   1.044       .  S
N2631      H2636   1.047       .  S
N2634      H2637   1.044       .  S
N2634      H2638   1.044       .  S
C2639      C2640   1.409       .  A
C2639      C2644   1.393       .  A
C2639      H2646   1.083       .  S
C2640      C2641   1.421       .  A
C2641      C2642   1.402       .  A
C2641      N2648   1.429       .  S
C2642      C2643   1.402       .  A
C2642      H2647   1.083       .  S
C2643      C2644   1.411       .  A
C2644      N2645   1.433       .  S
N2645      H2649   1.043       .  S
N2645      H2650   1.041       .  S
N2648      H2651   1.041       .  S
N2648      H2652   1.042       .  S
C2653      C2654   1.402       .  A
C2653      C2658   1.393       .  A
C2653      H2660   1.084       .  S
C2654      C2655   1.410       .  A
C2655      C2656   1.409       .  A
C2655      N2662   1.436       .  S
C2656      C2657   1.403       .  A
C2656      H2661   1.084       .  S
C2657      C2658   1.408       .  A
C2658      N2659   1.434       .  S
N2659      H2663   1.046       .  S
N2659      H2664   1.045       .  S
N2662      H2665   1.046       .  S
N2662      H2666   1.044       .  S
C2667      C2668   1.403       .  A
C2667      C2672   1.410       .  A
C2667      H2674   1.083       .  S
C2668      C2669   1.405       .  A
C2669      C2670   1.406       .  A
C2669      N2676   1.431       .  S
C2670      C2671   1.402       .  A
C2670      H2675   1.083       .  S
C2671      C2672   1.409       .  A
C2672      N2673   1.436       .  S
N2673      H2677   1.046       .  S
N2673      H2678   1.045       .  S
N2676      H2679   1.043       .  S
N2676      H2680   1.045       .  S
C2681      C2682   1.404       .  A
C2681      C2686   1.410       .  A
C2681      H2688   1.083       .  S
C2682      C2683   1.407       .  A
C2683      C2684   1.407       .  A
C2683      N2690   1.437       .  S
C2684      C2685   1.403       .  A
C2684      H2689   1.084       .  S
C2685      C2686   1.408       .  A
C2686      N2687   1.437       .  S
N2687      H2691   1.046       .  S
N2687      H2692   1.045       .  S
N2690      H2693   1.046       .  S
N2690      H2694   1.045       .  S
C2695      C2696   1.402       .  A
C2695      C2700   1.402       .  A
C2695      H2702   1.082       .  S
C2696      C2697   1.409       .  A
C2697      C2698   1.398       .  A
C2697      N2704   1.433       .  S
C2698      C2699   1.403       .  A
C2698      H2703   1.084       .  S
C2699      C2700   1.415       .  A
C2700      N2701   1.431       .  S
N2701      H2705   1.043       .  S
N2701      H2706   1.044       .  S
N2704      H2707   1.046       .  S
N2704      H2708   1.046       .  S
C2709      C2710   1.401       .  A
C2709      C2714   1.405       .  A
C2709      H2716   1.084       .  S
C2710      C2711   1.408       .  A
C2711      C2712   1.394       .  A
C2711      N2718   1.433       .  S
C2712      C2713   1.409       .  A
C2712      H2717   1.083       .  S
C2713      C2714   1.411       .  A
C2714      N2715   1.429       .  S
N2715      H2719   1.046       .  S
N2715      H2720   1.044       .  S
N2718      H2721   1.045       .  S
N2718      H2722   1.044       .  S
C2723      C2724   1.405       .  A
C2723      C2728   1.407       .  A
C2723      H2730   1.084       .  S
C2724      C2725   1.413       .  A
C2725      C2726   1.405       .  A
C2725      N2732   1.432       .  S
C2726      C2727   1.405       .  A
C2726      H2731   1.084       .  S
C2727      C2728   1.413       .  A
C2728      N2729   1.432       .  S
N2729      H2733   1.046       .  S
N2729      H2734   1.045       .  S
N2732      H2735   1.045       .  S
N2732      H2736   1.046       .  S
C2737      C2738   1.406       .  A
C2737      C2742   1.405       .  A
C2737      H2744   1.084       .  S
C2738      C2739   1.417       .  A
C2739      C2740   1.413       .  A
C2739      N2746   1.437       .  S
C2740      C2741   1.406       .  A
C2740      H2745   1.083       .  S
C2741      C2742   1.412       .  A
C2742      N2743   1.433       .  S
N2743      H2747   1.045       .  S
N2743      H2748   1.046       .  S
N2746      H2749   1.046       .  S
N2746      H2750   1.045       .  S
C2751      C2752   1.404       .  A
C2751      C2756   1.404       .  A
C2751      H2758   1.084       .  S
C2752      C2753   1.412       .  A
C2753      C2754   1.408       .  A
C2753      N2760   1.437       .  S
C2754      C2755   1.410       .  A
C2754      H2759   1.082       .  S
C2755      C2756   1.421       .  A
C2756      N2757   1.438       .  S
N2757      H2761   1.044       .  S
N2757      H2762   1.046       .  S
N2760      H2763   1.043       .  S
N2760      H2764   1.048       .  S
C2765      C2766   1.405       .  A
C2765      C2770   1.406       .  A
C2765      H2772   1.083       .  S
C2766      C2767   1.415       .  A
C2767      C2768   1.409       .  A
C2767      N2774   1.438       .  S
C2768      C2769   1.406       .  A
C2768      H2773   1.083       .  S
C2769      C2770   1.414       .  A
C2770      N2771   1.438       .  S
N2771      H2775   1.045       .  S
N2771      H2776   1.046       .  S
N2774      H2777   1.046       .  S
N2774      H2778   1.045       .  S
C2779      C2780   1.404       .  A
C2779      C2784   1.400       .  A
C2779      H2786   1.084       .  S
C2780      C2781   1.413       .  A
C2781      C2782   1.409       .  A
C2781      N2788   1.432       .  S
C2782      C2783   1.407       .  A
C2782      H2787   1.084       .  S
C2783      C2784   1.420       .  A
C2784      N2785   1.433       .  S
N2785      H2789   1.046       .  S
N2785      H2790   1.045       .  S
N2788      H2791   1.045       .  S
N2788      H2792   1.046       .  S
C2793      C2794   1.405       .  A
C2793      C2798   1.408       .  A
C2793      H2800   1.084       .  S
C2794      C2795   1.408       .  A
C2795      C2796   1.401       .  A
C2795      N2802   1.433       .  S
C2796      C2797   1.413       .  A
C2796      H2801   1.076       .  S
C2797      C2798   1.426       .  A
C2798      N2799   1.434       .  S
N2799      H2803   1.044       .  S
N2799      H2804   1.042       .  S
N2802      H2805   1.046       .  S
N2802      H2806   1.045       .  S
C2807      C2808   1.404       .  A
C2807      C2812   1.397       .  A
C2807      H2814   1.083       .  S
C2808      C2809   1.409       .  A
C2809      C2810   1.404       .  A
C2809      N2816   1.429       .  S
C2810      C2811   1.401       .  A
C2810      H2815   1.084       .  S
C2811      C2812   1.410       .  A
C2812      N2813   1.439       .  S
N2813      H2817   1.045       .  S
N2813      H2818   1.046       .  S
N2816      H2819   1.046       .  S
N2816      H2820   1.045       .  S
C2821      C2822   1.402       .  A
C2821      C2826   1.406       .  A
C2821      H2828   1.084       .  S
C2822      C2823   1.404       .  A
C2823      C2824   1.403       .  A
C2823      N2830   1.431       .  S
C2824      C2825   1.402       .  A
C2824      H2829   1.084       .  S
C2825      C2826   1.418       .  A
C2826      N2827   1.438       .  S
N2827      H2831   1.044       .  S
N2827      H2832   1.044       .  S
N2830      H2833   1.045       .  S
N2830      H2834   1.043       .  S
C2835      C2836   1.410       .  A
C2835      C2840   1.406       .  A
C2835      H2842   1.083       .  S
C2836      C2837   1.421       .  A
C2837      C2838   1.404       .  A
C2837      N2844   1.437       .  S
C2838      C2839   1.404       .  A
C2838      H2843   1.084       .  S
C2839      C2840   1.412       .  A
C2840      N2841   1.438       .  S
N2841      H2845   1.044       .  S
N2841      H2846   1.047       .  S
N2844      H2847   1.044       .  S
N2844      H2848   1.046       .  S
C2849      C2850   1.402       .  A
C2849      C2854   1.403       .  A
C2849      H2856   1.084       .  S
C2850      C2851   1.414       .  A
C2851      C2852   1.403       .  A
C2851      N2858   1.438       .  S
C2852      C2853   1.401       .  A
C2852      H2857   1.082       .  S
C2853      C2854   1.414       .  A
C2854      N2855   1.438       .  S
N2855      H2859   1.041       .  S
N2855      H2860   1.046       .  S
N2858      H2861   1.044       .  S
N2858      H2862   1.046       .  S
C2863      C2864   1.402       .  A
C2863      C2868   1.389       .  A
C2863      H2870   1.084       .  S
C2864      C2865   1.406       .  A
C2865      C2866   1.409       .  A
C2865      N2872   1.430       .  S
C2866      C2867   1.406       .  A
C2866      H2871   1.084       .  S
C2867      C2868   1.415       .  A
C2868      N2869   1.435       .  S
N2869      H2873   1.043       .  S
N2869      H2874   1.043       .  S
N2872      H2875   1.043       .  S
N2872      H2876   1.047       .  S
C2877      C2878   1.410       .  A
C2877      C2882   1.411       .  A
C2877      H2884   1.080       .  S
C2878      C2879   1.420       .  A
C2879      C2880   1.391       .  A
C2879      N2886   1.435       .  S
C2880      C2881   1.398       .  A
C2880      H2885   1.084       .  S
C2881      C2882   1.417       .  A
C2882      N2883   1.431       .  S
N2883      H2887   1.045       .  S
N2883      H2888   1.046       .  S
N2886      H2889   1.046       .  S
N2886      H2890   1.046       .  S
C2891      C2892   1.398       .  A
C2891      C2896   1.401       .  A
C2891      H2898   1.084       .  S
C2892      C2893   1.409       .  A
C2893      C2894   1.401       .  A
C2893      N2900   1.430       .  S
C2894      C2895   1.397       .  A
C2894      H2899   1.084       .  S
C2895      C2896   1.409       .  A
C2896      N2897   1.432       .  S
N2897      H2901   1.045       .  S
N2897      H2902   1.046       .  S
N2900      H2903   1.046       .  S
N2900      H2904   1.046       .  S
