geometry optimzed in LAMMPS
_audit_creation_date              2020-11-30 
_audit_creation_method            'lammps2cif' 
_symmetry_space_group_name_H-M    'P1' 
_symmetry_Int_Tables_number       1 
_symmetry_cell_setting            triclinic 
loop_ 
_symmetry_equiv_pos_as_xyz 
  x,y,z 
_cell_length_a                    35.12528297 
_cell_length_b                    35.20726931297995 
_cell_length_c                    66.20009608949111 
_cell_angle_alpha                 90.25377836234279 
_cell_angle_beta                  89.73936314214849 
_cell_angle_gamma                 122.37105266712372 
loop_ 
_atom_site_label 
_atom_site_type_symbol 
_atom_site_fract_x 
_atom_site_fract_y 
_atom_site_fract_z 
_atom_site_charge 
In1        In  0.77996693  0.98205294  0.77676993     1.36900
C2          C  0.78386531  0.90950794  0.78137657     0.79800
O3          O  0.77926018  0.98704048  0.81045428    -0.58600
O4          O  0.72003161  0.97131970  0.79457824    -0.49500
C5          C  0.84917845  0.06665042  0.77513679     0.72500
O6          O  0.85393617  0.03389024  0.77705697    -0.44400
C7          C  0.74901710  0.96653442  0.73900110     0.77200
O8          O  0.81870106  0.94862582  0.78131528    -0.56200
O9          O  0.73060098  0.97584899  0.75293377    -0.46300
O10         O  0.74709249  0.90745862  0.77964573    -0.52700
C11         C  0.73934409  0.97762605  0.81138427     0.87400
O12         O  0.80900675  0.05649350  0.77395718    -0.54500
O13         O  0.78361387  0.96702911  0.74428881    -0.57800
In14       In  0.64628308  0.93220514  0.90367698     1.36900
C15         C  0.64572591  0.85629826  0.90570021     0.79800
O16         O  0.63986388  0.93413016  0.87002087    -0.58600
O17         O  0.70569747  0.96597796  0.88255398    -0.49500
C18         C  0.56721836  0.92470913  0.90624963     0.72500
O19         O  0.57638376  0.90087609  0.91679215    -0.44400
C20         C  0.68530159  0.99606449  0.93203237     0.77200
O21         O  0.61259900  0.85755750  0.89954322    -0.56200
O22         O  0.68895929  0.00369188  0.91335705    -0.46300
O23         O  0.67877659  0.89350334  0.91164526    -0.52700
C24         C  0.68173504  0.95574933  0.86691609     0.87400
O25         O  0.59779276  0.95135355  0.89427892    -0.54500
O26         O  0.66399377  0.95492937  0.93651935    -0.57800
In27       In  0.04887231  0.26132046  0.77409379     1.36900
C28         C  0.12260301  0.25886054  0.77645136     0.79800
O29         O  0.06126727  0.25546580  0.74147288    -0.58600
O30         O  0.05727347  0.31138749  0.74980715    -0.49500
C31         C  0.96585512  0.18865186  0.77421306     0.72500
O32         O  0.00019321  0.18755443  0.77812873    -0.44400
C33         C  0.05376390  0.30203694  0.80907513     0.77200
O34         O  0.08374705  0.22378913  0.77557167    -0.56200
O35         O  0.05131670  0.31746314  0.79228766    -0.46300
O36         O  0.12396521  0.29542094  0.77673802    -0.52700
C37         C  0.06451118  0.29117078  0.73594462     0.87400
O38         O  0.97341488  0.22709223  0.77028045    -0.54500
O39         O  0.05285969  0.26591307  0.80797640    -0.57800
In40       In  0.11289572  0.40452966  0.89947041     1.36900
C41         C  0.18853290  0.40462043  0.89794225     0.79800
O42         O  0.12880212  0.41283785  0.93226691    -0.58600
O43         O  0.06497394  0.35672205  0.92357587    -0.49500
C44         C  0.09874256  0.47144483  0.90009774     0.72500
O45         O  0.13765440  0.47798708  0.89872492    -0.44400
C46         C  0.08064244  0.36447436  0.86391066     0.77200
O47         O  0.18857429  0.44043684  0.89659916    -0.56200
O48         O  0.06426144  0.34434833  0.88045125    -0.46300
O49         O  0.15017551  0.36916563  0.89971505    -0.52700
C50         C  0.09261533  0.37794415  0.93771599     0.87400
O51         O  0.06689154  0.43075482  0.90065581    -0.54500
O52         O  0.11191762  0.40517584  0.86556606    -0.57800
In53       In  0.04397524  0.71846068  0.77464223     1.36900
C54         C  0.12046048  0.79863553  0.77481102     0.79800
O55         O  0.04035728  0.72408903  0.80841612    -0.58600
O56         O  0.05508074  0.67703000  0.79684857    -0.49500
C57         C  0.96224618  0.70559984  0.77247276     0.72500
O58         O  0.99763860  0.74258894  0.76836021    -0.44400
C59         C  0.05005320  0.67907894  0.74127413     0.77200
O60         O  0.08236928  0.79405309  0.77498084    -0.56200
O61         O  0.03972009  0.66037826  0.75831340    -0.46300
O62         O  0.11965595  0.76246412  0.77438718    -0.52700
C63         C  0.04946650  0.69481292  0.81216653     0.87400
O64         O  0.96813720  0.67444261  0.77703914    -0.54500
O65         O  0.05544897  0.71747537  0.74098622    -0.57800
In66       In  0.09501520  0.66024696  0.90647470     1.36900
C67         C  0.17443641  0.73674307  0.90894940     0.79800
O68         O  0.10084899  0.65941203  0.87263679    -0.58600
O69         O  0.05346517  0.67303177  0.88498232    -0.49500
C70         C  0.08987914  0.58184955  0.90469088     0.72500
O71         O  0.12649577  0.61925920  0.90444136    -0.44400
C72         C  0.05182057  0.66368665  0.93930744     0.77200
O73         O  0.16722849  0.70078034  0.91660953    -0.56200
O74         O  0.03359136  0.65120249  0.92221302    -0.46300
O75         O  0.14099812  0.73403708  0.90057345    -0.52700
C76         C  0.07155687  0.66883461  0.86937642     0.87400
O77         O  0.05528414  0.58390452  0.90638110    -0.54500
O78         O  0.09148873  0.67217658  0.93995708    -0.57800
In79       In  0.31762575  0.99856331  0.77890233     1.36900
C80         C  0.23900104  0.92040796  0.77697724     0.79800
O81         O  0.31746875  0.98565580  0.74538631    -0.58600
O82         O  0.37853824  0.01185464  0.76153462    -0.49500
C83         C  0.32497459  0.07798072  0.77801994     0.72500
O84         O  0.28768923  0.04125086  0.77951593    -0.44400
C85         C  0.34443744  0.99092307  0.81552628     0.77200
O86         O  0.24247791  0.95744299  0.77392606    -0.56200
O87         O  0.35814263  0.98269997  0.79951451    -0.46300
O88         O  0.27538258  0.92319476  0.78100759    -0.52700
C89         C  0.35830211  0.99766148  0.74493398     0.87400
O90         O  0.35880942  0.07449537  0.77715205    -0.54500
O91         O  0.31803656  0.00436885  0.81295335    -0.57800
In92       In  0.37786003  0.92855321  0.90650329     1.36900
C93         C  0.29743309  0.85312708  0.90748510     0.79800
O94         O  0.36652898  0.92907456  0.94003075    -0.58600
O95         O  0.39801306  0.99102708  0.92436056    -0.49500
C96         C  0.45195748  0.92563674  0.90773022     0.72500
O97         O  0.41398555  0.89321782  0.91308217    -0.44400
C98         C  0.37065786  0.95902633  0.87072061     0.77200
O99         O  0.33294319  0.85361085  0.90400886    -0.56200
O100        O  0.37022331  0.97677294  0.88717857    -0.46300
O101        O  0.30269638  0.89111126  0.91005496    -0.52700
C102        C  0.38228562  0.97066592  0.94082733     0.87400
O103        O  0.45249927  0.95989394  0.90187477    -0.54500
O104        O  0.37573047  0.92639350  0.87240237    -0.57800
In105      In  0.31681665  0.26453005  0.77544686     1.36900
C106        C  0.23807471  0.25833053  0.77512389     0.79800
O107        O  0.30525105  0.26425494  0.80866937    -0.58600
O108        O  0.37083514  0.31142349  0.79735781    -0.49500
C109        C  0.32491591  0.19372666  0.77543878     0.72500
O110        O  0.28840468  0.19080247  0.77134239    -0.44400
C111        C  0.35144923  0.31098253  0.74126072     0.77200
O112        O  0.24063703  0.22395092  0.77490312    -0.56200
O113        O  0.35566627  0.32928525  0.75815476    -0.46300
O114        O  0.27523006  0.29525192  0.77501424    -0.52700
C115        C  0.34462655  0.29644620  0.81237298     0.87400
O116        O  0.35782358  0.23301476  0.77900835    -0.54500
O117        O  0.33210832  0.26880542  0.74190494    -0.57800
In118      In  0.37190838  0.38971094  0.90368524     1.36900
C119        C  0.30031215  0.39687822  0.90027284     0.79800
O120        O  0.38272148  0.39383479  0.87010695    -0.58600
O121        O  0.35327704  0.32987480  0.88407238    -0.49500
C122        C  0.45431305  0.46250403  0.90632591     0.72500
O123        O  0.41996856  0.46177641  0.91246873    -0.44400
C124        C  0.36618217  0.34621265  0.93759773     0.77200
O125        O  0.33992785  0.42930817  0.89711914    -0.56200
O126        O  0.37772718  0.33846804  0.92083194    -0.46300
O127        O  0.29698784  0.36066544  0.90510671    -0.52700
C128        C  0.36689558  0.35245666  0.86803353     0.87400
O129        O  0.44701310  0.42567418  0.89967398    -0.54500
O130        O  0.35853779  0.37735816  0.93731900    -0.57800
In131      In  0.77763826  0.71637354  0.77397185     1.36900
C132        C  0.78315212  0.79385139  0.77913382     0.79800
O133        O  0.78331668  0.73555426  0.74150654    -0.58600
O134        O  0.73236773  0.66863410  0.74915950    -0.49500
C135        C  0.84637654  0.70499901  0.77372345     0.72500
O136        O  0.85139387  0.74314094  0.77463935    -0.44400
C137        C  0.73331252  0.68092680  0.80833996     0.77200
O138        O  0.81751691  0.79112433  0.77917979    -0.56200
O139        O  0.71400494  0.66862327  0.79139552    -0.46300
O140        O  0.74620039  0.75727069  0.77637599    -0.52700
C141        C  0.75098027  0.69812356  0.73551896     0.87400
O142        O  0.80605999  0.67216160  0.77321140    -0.54500
O143        O  0.77516470  0.70885365  0.80758808    -0.57800
In144      In  0.64629745  0.66485074  0.90043701     1.36900
C145        C  0.64530970  0.74010189  0.90248111     0.79800
O146        O  0.65373594  0.66708211  0.93435954    -0.58600
O147        O  0.71020057  0.68298782  0.91612277    -0.49500
C148        C  0.57331852  0.58256000  0.90295804     0.72500
O149        O  0.57176013  0.61609594  0.89787177    -0.44400
C150        C  0.67535068  0.66112164  0.86364838     0.77200
O151        O  0.61336473  0.70291305  0.90895164    -0.56200
O152        O  0.69398901  0.65938791  0.87952484    -0.46300
O153        O  0.67724656  0.73882794  0.89456456    -0.52700
C154        C  0.69468959  0.67955798  0.93367534     0.87400
O155        O  0.61215955  0.59066676  0.90652346    -0.54500
O156        O  0.64157229  0.66414606  0.86647772    -0.57800
C157        C  0.99234764  0.73662246  0.00523314     0.88800
C158        C  0.98123874  0.70551833  0.02327776    -0.51500
C159        C  0.01286147  0.69508662  0.02703420     0.11700
C160        C  0.05245569  0.71647636  0.01185783     0.22600
C161        C  0.03941213  0.77761400  0.00951483    -0.52200
C162        C  0.07076845  0.76692033  0.01290109     0.11800
C163        C  0.99865494  0.71262995  0.98736975    -0.51700
C164        C  0.03071584  0.70230189  0.99065479     0.12400
H165        H  0.95223682  0.69502641  0.03298656     0.16900
H166        H  0.07845134  0.70833321  0.01475654     0.02600
H167        H  0.04745848  0.81202715  0.00940350     0.17200
H168        H  0.98137186  0.70730794  0.97311622     0.17000
C169        C  0.08064862  0.27335136  0.00790833     0.88800
C170        C  0.06979357  0.29518622  0.02508822    -0.51500
C171        C  0.03326277  0.29844214  0.02134395     0.11700
C172        C  0.01169126  0.27976922  0.00039536     0.22600
C173        C  0.03698535  0.22786109  0.00426312    -0.52200
C174        C  0.00087023  0.23126884  0.00039872     0.11800
C175        C  0.08686653  0.30133484  0.98926567    -0.51700
C176        C  0.05078403  0.30482813  0.98508585     0.12400
H177        H  0.08782205  0.30438235  0.03931712     0.16900
H178        H  0.98203774  0.28218282  0.99716751     0.02600
H179        H  0.03464049  0.19584585  0.00506102     0.17200
H180        H  0.11654264  0.31536927  0.97965116     0.17000
C181        C  0.29588672  0.21246498  0.00349273     0.88800
C182        C  0.32348211  0.23567711  0.02237055    -0.51500
C183        C  0.32997111  0.27695096  0.02593352     0.11700
C184        C  0.30862870  0.29141254  0.00978242     0.22600
C185        C  0.25195507  0.21122150  0.00624935    -0.52200
C186        C  0.25878977  0.25270287  0.00955788     0.11800
C187        C  0.32061333  0.24539564  0.98622048    -0.51700
C188        C  0.32705435  0.28701077  0.98923138     0.12400
H189        H  0.33632788  0.22049138  0.03225529     0.16900
H190        H  0.31368244  0.32497219  0.01254259     0.02600
H191        H  0.21868428  0.18062545  0.00552108     0.17200
H192        H  0.32914576  0.23496780  0.97239321     0.17000
C193        C  0.74114205  0.96153485  0.99445525     0.88800
C194        C  0.71951449  0.97325242  0.97727959    -0.51500
C195        C  0.72569836  0.01504649  0.97949620     0.11700
C196        C  0.75272210  0.04026150  0.99857660     0.22600
C197        C  0.79085089  0.00015614  0.99460353    -0.52200
C198        C  0.79670465  0.04137191  0.99668176     0.11800
C199        C  0.72115517  0.96704759  0.01411157    -0.51700
C200        C  0.72748590  0.00868529  0.01638767     0.12400
H201        H  0.70201894  0.95065782  0.96485736     0.16900
H202        H  0.75847421  0.07433873  0.00051834     0.02600
H203        H  0.81883419  0.99535816  0.99307533     0.17200
H204        H  0.70512543  0.94068249  0.02536047     0.17000
C205        C  0.30844313  0.03077700  0.00403281     0.88800
C206        C  0.33486251  0.02416917  0.98749043    -0.51500
C207        C  0.34175143  0.99004342  0.99137323     0.11700
C208        C  0.32192914  0.96653144  0.01184886     0.22600
C209        C  0.26488554  0.98488058  0.00657837    -0.52200
C210        C  0.27199447  0.95131248  0.01069801     0.11800
C211        C  0.33477728  0.03828529  0.02344774    -0.51700
C212        C  0.34161498  0.00450053  0.02776769     0.12400
H213        H  0.34398289  0.04272692  0.97341148     0.16900
H214        H  0.32724871  0.93883401  0.01527157     0.02600
H215        H  0.23144964  0.97940041  0.00532334     0.17200
H216        H  0.34609799  0.06727167  0.03324162     0.17000
C217        C  0.81610968  0.75871924  0.00372207     0.88800
C218        C  0.78647827  0.72767900  0.98668937    -0.51500
C219        C  0.74293287  0.71722951  0.98729444     0.11700
C220        C  0.73294701  0.73750196  0.00578206     0.22600
C221        C  0.81153355  0.79965551  0.00268830    -0.52200
C222        C  0.76773580  0.78839375  0.00370211     0.11800
C223        C  0.79227564  0.73444212  0.02313340    -0.51700
C224        C  0.74862900  0.72317203  0.02447972     0.12400
H225        H  0.79998311  0.71668709  0.97489564     0.16900
H226        H  0.69749232  0.72862765  0.00665286     0.02600
H227        H  0.83990645  0.83393709  0.00071467     0.17200
H228        H  0.80836844  0.72589346  0.03466987     0.17000
In229      In  0.42679641  0.06520249  0.11560166     1.36900
C230        C  0.44350138  0.14886468  0.11401653     0.79800
O231        O  0.41611425  0.03740391  0.08381868    -0.58600
O232        O  0.36079918  0.03286579  0.09923531    -0.49500
C233        C  0.49767495  0.05706683  0.11156153     0.72500
O234        O  0.49663812  0.08940599  0.10416945    -0.44400
C235        C  0.38794793  0.03290151  0.15163496     0.77200
O236        O  0.46973911  0.14001017  0.12268587    -0.56200
O237        O  0.37759264  0.00827992  0.13619142    -0.46300
O238        O  0.40977010  0.11560495  0.10589057    -0.52700
C239        C  0.37564839  0.02652337  0.08305908     0.87400
O240        O  0.46279859  0.02899415  0.12120949    -0.54500
O241        O  0.41870526  0.07333458  0.14884607    -0.57800
In242      In  0.28920517  0.00309479  0.24198400     1.36900
C243        C  0.27735761  0.07180234  0.24336728     0.79800
O244        O  0.30893461  0.99207677  0.27308147    -0.58600
O245        O  0.35601985  0.04965743  0.25630373    -0.49500
C246        C  0.21294380  0.92271336  0.24483094     0.72500
O247        O  0.21380298  0.95887909  0.24481298    -0.44400
C248        C  0.32513022  0.00260399  0.20639421     0.77200
O249        O  0.29048358  0.06154892  0.22776532    -0.56200
O250        O  0.34238677  0.00204557  0.22296301    -0.46300
O251        O  0.26846924  0.04603485  0.25819179    -0.52700
C252        C  0.34694534  0.02844094  0.27266332     0.87400
O253        O  0.25100255  0.92729408  0.24369703    -0.54500
O254        O  0.28856764  0.00101366  0.20797186    -0.57800
In255      In  0.01726935  0.72158081  0.24059887     1.36900
C256        C  0.94364596  0.72579820  0.24388120     0.79800
O257        O  0.02559211  0.72591278  0.20679007    -0.58600
O258        O  0.98569268  0.66102938  0.21993170    -0.49500
C259        C  0.09412380  0.80110833  0.24352190     0.72500
O260        O  0.06212412  0.78859663  0.25584450    -0.44400
C261        C  0.04112512  0.68216948  0.26792186     0.77200
O262        O  0.98072112  0.75773690  0.23732231    -0.56200
O263        O  0.04501238  0.67975677  0.24914489    -0.46300
O264        O  0.94406643  0.69175508  0.24933876    -0.52700
C265        C  0.00195830  0.68399437  0.20405172     0.87400
O266        O  0.08667493  0.77353769  0.22958419    -0.54500
O267        O  0.02182533  0.70231145  0.27297676    -0.57800
In268      In  0.94353376  0.58898792  0.11163679     1.36900
C269        C  0.86560453  0.58390099  0.11321220     0.79800
O270        O  0.94201016  0.58629721  0.14553178    -0.58600
O271        O  0.99100421  0.64787365  0.13161934    -0.49500
C272        C  0.95780652  0.52231981  0.10965122     0.72500
O273        O  0.91891742  0.51578780  0.11044907    -0.44400
C274        C  0.96509174  0.62043680  0.07400526     0.77200
O275        O  0.86786189  0.54935013  0.11412455    -0.56200
O276        O  0.99272944  0.63920421  0.08839101    -0.46300
O277        O  0.90295433  0.62079174  0.11207592    -0.52700
C278        C  0.97329395  0.62677252  0.14782062     0.87400
O279        O  0.98975629  0.56295237  0.11022350    -0.54500
O280        O  0.92826784  0.58570569  0.07888370    -0.57800
In281      In  0.69016924  0.05910280  0.10473747     1.36900
C282        C  0.76551556  0.14019428  0.10295209     0.79800
O283        O  0.68060430  0.05103486  0.13849926    -0.58600
O284        O  0.71124461  0.02036809  0.12385909    -0.49500
C285        C  0.61151291  0.05360713  0.10624400     0.72500
O286        O  0.64830921  0.08850759  0.11104760    -0.44400
C287        C  0.69170352  0.02078804  0.07007714     0.77200
O288        O  0.72801634  0.13307190  0.09733020    -0.56200
O289        O  0.67522563  0.99868110  0.08612653    -0.46300
O290        O  0.76462638  0.10616255  0.10940013    -0.52700
C291        C  0.69876230  0.02864681  0.14024698     0.87400
O292        O  0.61448868  0.02110063  0.10050001    -0.54500
O293        O  0.70582561  0.06195594  0.07161712    -0.57800
In294      In  0.75662279  0.00095895  0.23326081     1.36900
C295        C  0.83525911  0.07888308  0.23236883     0.79800
O296        O  0.75715797  0.99343742  0.19934996    -0.58600
O297        O  0.71401361  0.01237491  0.21182078    -0.49500
C298        C  0.75140929  0.92307904  0.23709745     0.72500
O299        O  0.78709859  0.96044671  0.24029249    -0.44400
C300        C  0.71484357  0.00209370  0.26684036     0.77200
O301        O  0.83210501  0.04165794  0.23088742    -0.56200
O302        O  0.69545566  0.98884076  0.25000946    -0.46300
O303        O  0.79840197  0.07654103  0.23438253    -0.52700
C304        C  0.72884136  0.00418781  0.19616472     0.87400
O305        O  0.71788520  0.92511341  0.23231719    -0.54500
O306        O  0.75571139  0.01412961  0.26670492    -0.57800
In307      In  0.96624578  0.33620597  0.10514456     1.36900
C308        C  0.88549695  0.26044160  0.10300353     0.79800
O309        O  0.96699269  0.31760788  0.07253542    -0.58600
O310        O  0.02948114  0.35666838  0.08763962    -0.49500
C311        C  0.96736079  0.41235454  0.10598805     0.72500
O312        O  0.93376324  0.37522867  0.11146821    -0.44400
C313        C  0.99908558  0.33034805  0.14061368     0.77200
O314        O  0.89360955  0.29657495  0.09513796    -0.56200
O315        O  0.00569446  0.31610754  0.12433593    -0.46300
O316        O  0.91842046  0.26285421  0.11179914    -0.52700
C317        C  0.00919623  0.33666040  0.07165731     0.87400
O318        O  0.00055196  0.41088672  0.09989226    -0.54500
O319        O  0.97650102  0.34834099  0.13882600    -0.57800
In320      In  0.03579539  0.27470368  0.23240377     1.36900
C321        C  0.95670463  0.19759822  0.23151820     0.79800
O322        O  0.01666144  0.26924302  0.26547299    -0.58600
O323        O  0.04764942  0.33303411  0.25150276    -0.49500
C324        C  0.11464580  0.28059031  0.23537753     0.72500
O325        O  0.07732731  0.24399664  0.23694625    -0.44400
C326        C  0.03091753  0.30386822  0.19581468     0.77200
O327        O  0.99344218  0.19926430  0.23211543    -0.56200
O328        O  0.03010600  0.32260866  0.21190101    -0.46300
O329        O  0.96026500  0.23514867  0.23118042    -0.52700
C330        C  0.02984868  0.31012026  0.26721680     0.87400
O331        O  0.11201366  0.31431067  0.23218906    -0.54500
O332        O  0.03600835  0.27141307  0.19827913    -0.57800
In333      In  0.42875148  0.33158625  0.11212815     1.36900
C334        C  0.44542144  0.26564294  0.11349918     0.79800
O335        O  0.43253941  0.34156626  0.14574392    -0.58600
O336        O  0.37362123  0.32952616  0.13079782    -0.49500
C337        C  0.49905610  0.41572913  0.10815956     0.72500
O338        O  0.50332372  0.38268488  0.11048016    -0.44400
C339        C  0.37364712  0.30268722  0.08025242     0.77200
O340        O  0.45918207  0.29365134  0.09928198    -0.56200
O341        O  0.36251776  0.28351623  0.09717694    -0.46300
O342        O  0.42486031  0.27223847  0.12727677    -0.52700
C343        C  0.39399092  0.33567642  0.14729927     0.87400
O344        O  0.45893530  0.40600858  0.10777757    -0.54500
O345        O  0.41220338  0.33822494  0.07979688    -0.57800
In346      In  0.30303485  0.27468569  0.23919148     1.36900
C347        C  0.28535902  0.19119624  0.24222995     0.79800
O348        O  0.30250276  0.27034874  0.20533029    -0.58600
O349        O  0.35376229  0.33112592  0.21895025    -0.49500
C350        C  0.23079746  0.28100829  0.23904072     0.72500
O351        O  0.22837998  0.24420740  0.23718073    -0.44400
C352        C  0.35957615  0.31038006  0.27066995     0.77200
O353        O  0.31163312  0.21867666  0.22915208    -0.56200
O354        O  0.37053188  0.30253078  0.25377260    -0.46300
O355        O  0.26746801  0.20590002  0.25376873    -0.52700
C356        C  0.33704291  0.30900460  0.20289417     0.87400
O357        O  0.27010165  0.31488112  0.24137807    -0.54500
O358        O  0.31991932  0.30202926  0.27141247    -0.57800
In359      In  0.75623433  0.73459973  0.23860170     1.36900
C360        C  0.83070217  0.73213356  0.24212780     0.79800
O361        O  0.74384087  0.73361880  0.27202919    -0.58600
O362        O  0.70710482  0.67211642  0.25593708    -0.49500
C363        C  0.75231236  0.80784195  0.23871435     0.72500
O364        O  0.78894566  0.80954437  0.24034061    -0.44400
C365        C  0.72947004  0.70684386  0.20087960     0.77200
O366        O  0.83128013  0.76814782  0.24372246    -0.56200
O367        O  0.70295498  0.69042418  0.21573781    -0.46300
O368        O  0.79245065  0.69767488  0.23869299    -0.52700
C369        C  0.71619162  0.69175464  0.27281070     0.87400
O370        O  0.71769010  0.76887567  0.23701562    -0.54500
O371        O  0.76920041  0.73755704  0.20522031    -0.57800
In372      In  0.69496237  0.61637212  0.10840593     1.36900
C373        C  0.75547087  0.59297919  0.10964278     0.79800
O374        O  0.68435134  0.63596366  0.07706916    -0.58600
O375        O  0.73888777  0.68486230  0.09473425    -0.49500
C376        C  0.61370719  0.54069695  0.10553414     0.72500
O377        O  0.64778970  0.54636180  0.09634449    -0.44400
C378        C  0.70344907  0.65621921  0.14391085     0.77200
O379        O  0.72371501  0.57863524  0.12222044    -0.56200
O380        O  0.67802669  0.65527528  0.13023914    -0.46300
O381        O  0.75521576  0.61747400  0.09591111    -0.52700
C382        C  0.71881779  0.67525742  0.07803217     0.87400
O383        O  0.62036317  0.57427898  0.11548066    -0.54500
O384        O  0.72450413  0.63771702  0.13932666    -0.57800
C385        C  0.43941276  0.12188600  0.34696324     0.88800
C386        C  0.41225478  0.09248010  0.36488085    -0.51500
C387        C  0.39945482  0.04858095  0.36296898     0.11700
C388        C  0.41400493  0.03797533  0.34266733     0.22600
C389        C  0.47882092  0.11523755  0.34442421    -0.52200
C390        C  0.46538290  0.07122767  0.34213847     0.11800
C391        C  0.40958310  0.09932462  0.32855387    -0.51700
C392        C  0.39637644  0.05535372  0.32605349     0.12400
H393        H  0.40589098  0.10580067  0.37843719     0.16900
H394        H  0.40343418  0.00233895  0.34056797     0.02600
H395        H  0.51397902  0.14265126  0.34444890     0.17200
H396        H  0.39996816  0.11677540  0.31828935     0.17000
C397        C  0.16817402  0.39492245  0.66445980     0.88800
C398        C  0.13307831  0.37150994  0.64781119    -0.51500
C399        C  0.09296678  0.36797165  0.65181824     0.11700
C400        C  0.09224802  0.38816052  0.67255941     0.22600
C401        C  0.17299633  0.44042394  0.66753506    -0.52200
C402        C  0.13319601  0.43681491  0.67178687     0.11800
C403        C  0.14534830  0.36820483  0.68365150    -0.51700
C404        C  0.10546079  0.36462541  0.68812563     0.12400
H405        H  0.14083072  0.36119672  0.63374809     0.16900
H406        H  0.05999336  0.38565781  0.67603470     0.02600
H407        H  0.20485290  0.47254079  0.66630742     0.17200
H408        H  0.16050366  0.35498837  0.69328801     0.17000
C409        C  0.75729545  0.62553184  0.33920718     0.88800
C410        C  0.75502276  0.64338588  0.35999036    -0.51500
C411        C  0.71901858  0.64802781  0.36244047     0.11700
C412        C  0.68932251  0.63554209  0.34323123     0.22600
C413        C  0.71121772  0.58161109  0.33645010    -0.52200
C414        C  0.67565326  0.58702583  0.33859614     0.11800
C415        C  0.75781121  0.65826639  0.32414892    -0.51700
C416        C  0.72216870  0.66329912  0.32594583     0.12400
H417        H  0.77865665  0.64978765  0.37204583     0.16900
H418        H  0.66029585  0.63977224  0.34452309     0.02600
H419        H  0.70710017  0.54929637  0.33330168     0.17200
H420        H  0.78293473  0.67431432  0.31224822     0.17000
C421        C  0.44703765  0.31383997  0.34617673     0.88800
C422        C  0.41908449  0.30638370  0.32732908    -0.51500
C423        C  0.40890106  0.33833541  0.32434819     0.11700
C424        C  0.42765285  0.37490418  0.34110293     0.22600
C425        C  0.48869515  0.36127603  0.34404632    -0.52200
C426        C  0.47870553  0.39338506  0.34136866     0.11800
C427        C  0.42011506  0.31660712  0.36365135    -0.51700
C428        C  0.40998232  0.34890711  0.36133073     0.12400
H429        H  0.40815863  0.27802477  0.31718183     0.16900
H430        H  0.41973430  0.40120971  0.33889180     0.02600
H431        H  0.52300030  0.36884425  0.34461916     0.17200
H432        H  0.41265567  0.29645833  0.37715740     0.17000
C433        C  0.94244516  0.61599707  0.32808951     0.88800
C434        C  0.97938523  0.64126531  0.31196706    -0.51500
C435        C  0.01430738  0.63457452  0.31371673     0.11700
C436        C  0.00833552  0.60343472  0.33146573     0.22600
C437        C  0.92777204  0.56661171  0.32599777    -0.52200
C438        C  0.96247880  0.56023214  0.32774948     0.11800
C439        C  0.96683731  0.63142850  0.34847027    -0.51700
C440        C  0.00142255  0.62450787  0.35041083     0.12400
H441        H  0.97722912  0.66196294  0.30068844     0.16900
H442        H  0.03610882  0.59729727  0.33303019     0.02600
H443        H  0.89310805  0.53918853  0.32359964     0.17200
H444        H  0.95661422  0.64568891  0.36024967     0.17000
C445        C  0.63659722  0.67576460  0.66791414     0.88800
C446        C  0.66535216  0.67769505  0.65016699    -0.51500
C447        C  0.67789372  0.64720023  0.65123423     0.11700
C448        C  0.66137229  0.61823214  0.67069105     0.22600
C449        C  0.59690253  0.62674357  0.66889822    -0.52200
C450        C  0.60995345  0.59660277  0.67029638     0.11800
C451        C  0.66473625  0.68264761  0.68656990    -0.51700
C452        C  0.67796291  0.65269961  0.68826531     0.12400
H453        H  0.67293846  0.69956600  0.63725478     0.16900
H454        H  0.67179689  0.59363037  0.67198254     0.02600
H455        H  0.56183534  0.61673118  0.66802366     0.17200
H456        H  0.67240680  0.70832704  0.69785410     0.17000
C457        C  0.63194403  0.86187906  0.67142525     0.88800
C458        C  0.66383324  0.88628234  0.68905075    -0.51500
C459        C  0.67115297  0.92784080  0.69297739     0.11700
C460        C  0.64592760  0.94109538  0.67842778     0.22600
C461        C  0.58888523  0.86094416  0.67653963    -0.52200
C462        C  0.59632806  0.90251914  0.68013412     0.11800
C463        C  0.65276456  0.89386315  0.65345363    -0.51700
C464        C  0.65988548  0.93568010  0.65691204     0.12400
H465        H  0.67730057  0.87080335  0.69831937     0.16900
H466        H  0.65149399  0.97477212  0.68148035     0.02600
H467        H  0.55548196  0.83041290  0.67675167     0.17200
H468        H  0.65856830  0.88294763  0.63908471     0.17000
C469        C  0.34512581  0.37418318  0.65965510     0.88800
C470        C  0.34075979  0.35600862  0.68112907    -0.51500
C471        C  0.37009367  0.34290136  0.68527640     0.11700
C472        C  0.40120444  0.34941120  0.66742085     0.22600
C473        C  0.39424364  0.41237938  0.65768916    -0.52200
C474        C  0.42379513  0.39963817  0.66187455     0.11800
C475        C  0.33981649  0.33690797  0.64562135    -0.51700
C476        C  0.36876440  0.32316339  0.64976542     0.12400
H477        H  0.31567087  0.35258227  0.69193172     0.16900
H478        H  0.42543617  0.33914712  0.67073079     0.02600
H479        H  0.40477445  0.44680632  0.65421635     0.17200
H480        H  0.31156766  0.31877247  0.63533159     0.17000
C481        C  0.11693109  0.61802584  0.67357569     0.88800
C482        C  0.08649926  0.61131277  0.65578161    -0.51500
C483        C  0.08021630  0.64599144  0.65294441     0.11700
C484        C  0.10497107  0.68421325  0.66857882     0.22600
C485        C  0.16081754  0.66328792  0.66975478    -0.52200
C486        C  0.15442758  0.69791706  0.66720855     0.11800
C487        C  0.09530041  0.62603344  0.69183930    -0.51700
C488        C  0.08904351  0.66105496  0.68942663     0.12400
H489        H  0.07268171  0.58240313  0.64571953     0.16900
H490        H  0.10016468  0.71265600  0.66637343     0.02600
H491        H  0.19387164  0.66771701  0.66951492     0.17200
H492        H  0.08781058  0.60667644  0.70562868     0.17000
C493        C  0.42476394  0.93394983  0.67885030     0.88800
C494        C  0.41366335  0.95321593  0.69705109    -0.51500
C495        C  0.37875779  0.95935568  0.69375666     0.11700
C496        C  0.35853087  0.94541490  0.67229980     0.22600
C497        C  0.38041802  0.89043191  0.67352336    -0.52200
C498        C  0.34574266  0.89643880  0.67018471     0.11800
C499        C  0.43384154  0.96629023  0.66156487    -0.51700
C500        C  0.39914883  0.97213017  0.65794392     0.12400
H501        H  0.43067840  0.95921040  0.71142270     0.16900
H502        H  0.33018253  0.95013735  0.66943800     0.02600
H503        H  0.37651244  0.85764504  0.67291272     0.17200
H504        H  0.46468921  0.98253934  0.65265035     0.17000
C505        C  0.63890040  0.04352346  0.33817226     0.88800
C506        C  0.63750997  0.01379837  0.35518526    -0.51500
C507        C  0.67624919  0.01383515  0.35713258     0.11700
C508        C  0.71253902  0.04329702  0.34124767     0.22600
C509        C  0.68093102  0.09022076  0.34220334    -0.52200
C510        C  0.71947909  0.08995693  0.34370108     0.11800
C511        C  0.64998666  0.02670467  0.31910005    -0.51700
C512        C  0.68909525  0.02691284  0.32045560     0.12400
H513        H  0.60945930  0.99683143  0.36571675     0.16900
H514        H  0.74419299  0.04353860  0.34262372     0.02600
H515        H  0.68046699  0.12078595  0.34313761     0.17200
H516        H  0.62963691  0.01800497  0.30559167     0.17000
C517        C  0.95665358  0.36749920  0.33295126     0.88800
C518        C  0.97958277  0.35926233  0.31534721    -0.51500
C519        C  0.98349312  0.32287331  0.31794774     0.11700
C520        C  0.96381457  0.29841250  0.33831039     0.22600
C521        C  0.91121521  0.32326148  0.33564653    -0.52200
C522        C  0.91504108  0.28713444  0.33847940     0.11800
C523        C  0.98412679  0.37162350  0.35156725    -0.51700
C524        C  0.98778375  0.33530254  0.35457117     0.12400
H525        H  0.98953094  0.37938050  0.30171132     0.16900
H526        H  0.96655615  0.26873344  0.34066776     0.02600
H527        H  0.87900012  0.32073110  0.33540435     0.17200
H528        H  0.99782179  0.39992293  0.36195392     0.17000
In529      In  0.41285258  0.30440933  0.57304116     1.36900
C530        C  0.49407028  0.37950066  0.57168908     0.79800
O531        O  0.40045072  0.30034151  0.53963801    -0.58600
O532        O  0.37340156  0.33037883  0.55757805    -0.49500
C533        C  0.41857364  0.23222587  0.57101216     0.72500
O534        O  0.44645736  0.26695332  0.58082053    -0.44400
C535        C  0.36691322  0.27907797  0.60793766     0.77200
O536        O  0.48623191  0.34260093  0.56481256    -0.56200
O537        O  0.35018617  0.26046169  0.59123848    -0.46300
O538        O  0.46077889  0.37807849  0.57981236    -0.52700
C539        C  0.37940957  0.32003361  0.54010426     0.87400
O540        O  0.38837628  0.23460877  0.56202534    -0.54500
O541        O  0.40579587  0.31408189  0.60667540    -0.57800
In542      In  0.35471785  0.38737186  0.44875076     1.36900
C543        C  0.43342091  0.46483731  0.45096604     0.79800
O544        O  0.35095757  0.38961459  0.48283160    -0.58600
O545        O  0.35846213  0.33895002  0.46971178    -0.49500
C546        C  0.27515136  0.37918136  0.44517583     0.72500
O547        O  0.31201784  0.41601996  0.44304217    -0.44400
C548        C  0.36322087  0.35488648  0.41344993     0.77200
O549        O  0.39647027  0.46273839  0.45120838    -0.56200
O550        O  0.35057242  0.33229172  0.42953855    -0.46300
O551        O  0.43026684  0.42754098  0.44987518    -0.52700
C552        C  0.35545243  0.35688359  0.48564999     0.87400
O553        O  0.27854370  0.34611922  0.44900490    -0.54500
O554        O  0.36990669  0.39364212  0.41514650    -0.57800
In555      In  0.97035954  0.58028212  0.57026794     1.36900
C556        C  0.97239622  0.50656962  0.56914423     0.79800
O557        O  0.97257131  0.57667681  0.53670197    -0.58600
O558        O  0.02423691  0.63648826  0.55094810    -0.49500
C559        C  0.89738648  0.58414818  0.56844749     0.72500
O560        O  0.89594453  0.54773385  0.56760342    -0.44400
C561        C  0.00026273  0.60313335  0.60803599     0.77200
O562        O  0.93598352  0.50553114  0.56902559    -0.56200
O563        O  0.02131028  0.62867845  0.59329363    -0.46300
O564        O  0.00787743  0.54522420  0.56944137    -0.52700
C565        C  0.00754186  0.61511516  0.53469064     0.87400
O566        O  0.93611351  0.61894530  0.57057768    -0.54500
O567        O  0.96340019  0.56803182  0.60349995    -0.57800
In568      In  0.08661815  0.65339249  0.43987481     1.36900
C569        C  0.08738019  0.57859485  0.43892323     0.79800
O570        O  0.09567720  0.65610703  0.47350901    -0.58600
O571        O  0.03259964  0.64129757  0.46242297    -0.49500
C572        C  0.16075736  0.73507859  0.43812706     0.72500
O573        O  0.16102432  0.69978608  0.43575914    -0.44400
C574        C  0.04431770  0.64889848  0.40563681     0.77200
O575        O  0.12286534  0.61698898  0.44004312    -0.56200
O576        O  0.03324740  0.65646491  0.42261046    -0.46300
O577        O  0.05131506  0.57814031  0.43811796    -0.52700
C578        C  0.05662577  0.64675684  0.47756776     0.87400
O579        O  0.12241598  0.72906883  0.44095831    -0.54500
O580        O  0.07772140  0.64462663  0.40606742    -0.57800
In581      In  0.36623771  0.92432550  0.43979328     1.36900
C582        C  0.44083306  0.92310383  0.44258706     0.79800
O583        O  0.38275201  0.93006013  0.40662399    -0.58600
O584        O  0.36363314  0.97320410  0.41879542    -0.49500
C585        C  0.28271358  0.85260372  0.43837699     0.72500
O586        O  0.31697306  0.85004126  0.43675964    -0.44400
C587        C  0.37232081  0.95992085  0.47608604     0.77200
O588        O  0.40225782  0.88762120  0.44139438    -0.56200
O589        O  0.37796333  0.98147384  0.46001419    -0.46300
O590        O  0.44142337  0.95922015  0.44235143    -0.52700
C591        C  0.37638732  0.96143094  0.40346969     0.87400
O592        O  0.29080763  0.89179926  0.44051166    -0.54500
O593        O  0.36247023  0.92019343  0.47361197    -0.57800
In594      In  0.43003684  0.04699907  0.56959695     1.36900
C595        C  0.50664951  0.04836910  0.57188485     0.79800
O596        O  0.42659977  0.04682440  0.60344253    -0.58600
O597        O  0.37758951  0.98783126  0.58806957    -0.49500
C598        C  0.42432911  0.11944005  0.56955118     0.72500
O599        O  0.46132573  0.12178199  0.56989283    -0.44400
C600        C  0.40114312  0.01380183  0.53264655     0.77200
O601        O  0.50562825  0.08352003  0.57284939    -0.56200
O602        O  0.37839368  0.99456050  0.54827457    -0.46300
O603        O  0.46879310  0.01257243  0.56968360    -0.52700
C604        C  0.39369682  0.00679024  0.60479922     0.87400
O605        O  0.38991153  0.08008224  0.56912280    -0.54500
O606        O  0.43801057  0.05012264  0.53581360    -0.57800
In607      In  0.97553904  0.31801571  0.57029151     1.36900
C608        C  0.97475465  0.39259861  0.57038381     0.79800
O609        O  0.99584702  0.33545830  0.60303585    -0.58600
O610        O  0.02741700  0.30931309  0.58561898    -0.49500
C611        C  0.90052607  0.23773661  0.57483632     0.72500
O612        O  0.90258495  0.27380322  0.57865693    -0.44400
C613        C  0.00105740  0.32343283  0.53181752     0.77200
O614        O  0.93951289  0.35441021  0.57284184    -0.56200
O615        O  0.02751206  0.33218366  0.54637660    -0.46300
O616        O  0.01057709  0.39294982  0.56823526    -0.52700
C617        C  0.02467861  0.32465202  0.60241185     0.87400
O618        O  0.93694165  0.24233332  0.56899078    -0.54500
O619        O  0.96136427  0.31070307  0.53682506    -0.57800
In620      In  0.09018173  0.38958302  0.43915040     1.36900
C621        C  0.08956398  0.46428415  0.43948659     0.79800
O622        O  0.10102279  0.40327126  0.40617378    -0.58600
O623        O  0.03953583  0.34460836  0.41531069    -0.49500
C624        C  0.16018264  0.38025066  0.44108863     0.72500
O625        O  0.16393925  0.41774006  0.44279578    -0.44400
C626        C  0.05048438  0.35545125  0.47453107     0.77200
O627        O  0.12565679  0.46469776  0.44029836    -0.56200
O628        O  0.03390609  0.33461348  0.45813701    -0.46300
O629        O  0.05385119  0.42586541  0.43892692    -0.52700
C630        C  0.06311830  0.37034616  0.40100406     0.87400
O631        O  0.12061354  0.34719327  0.43827103    -0.54500
O632        O  0.08684827  0.39294028  0.47277656    -0.57800
In633      In  0.63526171  0.65905048  0.44787724     1.36900
C634        C  0.55554947  0.58274331  0.45015743     0.79800
O635        O  0.61904068  0.64605145  0.41468186    -0.58600
O636        O  0.68451737  0.66495367  0.42399606    -0.49500
C637        C  0.64616131  0.74005772  0.44906692     0.72500
O638        O  0.60902587  0.70424971  0.45240384    -0.44400
C639        C  0.67116896  0.65061323  0.48186744     0.77200
O640        O  0.55993844  0.62066117  0.45071450    -0.56200
O641        O  0.68573077  0.64929424  0.46461598    -0.46300
O642        O  0.59175540  0.58361477  0.44840785    -0.52700
C643        C  0.65712328  0.65384614  0.40955156     0.87400
O644        O  0.67840951  0.73499578  0.44542327    -0.54500
O645        O  0.64007914  0.65823987  0.48178146    -0.57800
In646      In  0.69957854  0.56969299  0.56827239     1.36900
C647        C  0.61857675  0.49458992  0.56755953     0.79800
O648        O  0.69069750  0.55320783  0.60145321    -0.58600
O649        O  0.70602895  0.61773387  0.59248862    -0.49500
C650        C  0.77936636  0.57901892  0.56654497     0.72500
O651        O  0.74339178  0.54234451  0.56256029    -0.44400
C652        C  0.69778785  0.60964345  0.53440801     0.77200
O653        O  0.65434875  0.49434102  0.56711747    -0.56200
O654        O  0.69595659  0.62374874  0.55170917    -0.46300
O655        O  0.62411007  0.53302614  0.56763882    -0.52700
C656        C  0.69685014  0.59043703  0.60679338     0.87400
O657        O  0.77481190  0.61110369  0.57111329    -0.54500
O658        O  0.70127638  0.57587061  0.53440266    -0.57800
In659      In  0.63190362  0.92227281  0.44382629     1.36900
C660        C  0.55627183  0.92208687  0.44490415     0.79800
O661        O  0.63186710  0.92622656  0.47746868    -0.58600
O662        O  0.68485496  0.98261151  0.46176712    -0.49500
C663        C  0.64417139  0.85439235  0.44691197     0.72500
O664        O  0.60591390  0.84932607  0.44821770    -0.44400
C665        C  0.64831900  0.94359682  0.40483192     0.77200
O666        O  0.55651054  0.88651658  0.44646606    -0.56200
O667        O  0.67528650  0.96916369  0.41841058    -0.46300
O668        O  0.59452312  0.95772182  0.44317173    -0.52700
C669        C  0.66647308  0.96525173  0.47853545     0.83800
O670        O  0.67657017  0.89427966  0.44405576    -0.54500
O671        O  0.61558583  0.90681970  0.41119674    -0.57800
In672      In  0.69730659  0.04551796  0.57332493     1.36900
C673        C  0.62248947  0.04759122  0.57379015     0.79800
O674        O  0.70390992  0.05787180  0.53965474    -0.58600
O675        O  0.68401691  0.99284859  0.55003274    -0.49500
C676        C  0.77937444  0.11913192  0.57660579     0.72500
O677        O  0.74448937  0.11781058  0.58233585    -0.44400
C678        C  0.69280730  0.99701415  0.60542841     0.77200
O679        O  0.66132495  0.08270448  0.57431928    -0.56200
O680        O  0.70333285  0.99139511  0.58797886    -0.46300
O681        O  0.62166346  0.01140165  0.57316443    -0.52700
C682        C  0.69284909  0.01847108  0.53515098     0.87400
O683        O  0.77271355  0.08267624  0.56976333    -0.54500
O684        O  0.68548492  0.02828281  0.60671222    -0.57800
C685        C  0.68214141  0.98808507  0.49765090    -0.11000
C686        C  0.68928312  0.00340213  0.51457609    -0.12600
C687        C  0.69411033  0.62914246  0.51597167    -0.11000
C688        C  0.68657036  0.64139765  0.50027904    -0.12600
C689        C  0.64986649  0.81696944  0.44830336    -0.11000
C690        C  0.65057564  0.78308912  0.44897321    -0.12600
C691        C  0.82326610  0.15964702  0.57715324    -0.11000
C692        C  0.85924667  0.19472405  0.57654832    -0.12600
C693        C  0.01556549  0.32942291  0.51106312    -0.11000
C694        C  0.02978222  0.33864471  0.49396731    -0.12600
C695        C  0.54788908  0.04898370  0.57306579    -0.11000
C696        C  0.58211409  0.04870442  0.57366183    -0.12600
C697        C  0.51536666  0.92205814  0.44471865    -0.11000
C698        C  0.48127062  0.92244826  0.44395651    -0.12600
C699        C  0.37854581  0.97948923  0.49585647    -0.11000
C700        C  0.38705389  0.99519520  0.51269559    -0.12600
C701        C  0.08811729  0.53833166  0.43880510    -0.11000
C702        C  0.08903900  0.50465441  0.43909027    -0.12600
C703        C  0.23785701  0.81345896  0.43801600    -0.11000
C704        C  0.20156807  0.77869706  0.43792274    -0.12600
C705        C  0.97333826  0.46650818  0.56930532    -0.11000
C706        C  0.97404965  0.43277929  0.56985292    -0.12600
C707        C  0.85747787  0.58541395  0.56712485    -0.11000
C708        C  0.82232608  0.58356526  0.56640887    -0.12600
C709        C  0.02676887  0.63219550  0.51512416    -0.11000
C710        C  0.04050035  0.64105820  0.49798536    -0.12600
C711        C  0.47612646  0.50669051  0.45147873    -0.11000
C712        C  0.51234383  0.54151219  0.45118126    -0.12600
C713        C  0.19851701  0.37594914  0.44231041    -0.11000
C714        C  0.23260199  0.37563910  0.44353602    -0.12600
C715        C  0.57464453  0.45406573  0.56857681    -0.11000
C716        C  0.53775790  0.42020805  0.57010723    -0.12600
C717        C  0.42185231  0.15891057  0.56980030    -0.11000
C718        C  0.42063241  0.19253187  0.57026580    -0.12600
C719        C  0.35872468  0.34220487  0.50554036    -0.11000
C720        C  0.36548051  0.33137037  0.52181821    -0.12600
C721        C  0.00848173  0.33080646  0.37313608    -0.14200
C722        C  0.04716561  0.36617367  0.38010894    -0.29300
H723        H  0.99008241  0.29992623  0.38180352     0.14900
H724        H  0.06605867  0.39575381  0.37060963     0.15400
C725        C  0.68437652  0.99474160  0.37539363    -0.14200
C726        C  0.65069185  0.95621062  0.38342751    -0.29300
H727        H  0.71591761  0.01516932  0.38347807     0.14900
H728        H  0.62034900  0.93540741  0.37457947     0.15400
C729        C  0.87615528  0.24249730  0.34143966    -0.16200
C730        C  0.84177804  0.20630888  0.34349055     0.07800
C731        C  0.79992157  0.16511884  0.34502695     0.09700
C732        C  0.76339597  0.13063360  0.34522257    -0.17100
C733        C  0.40210737  0.00083877  0.64111363    -0.14200
C734        C  0.37774765  0.98282401  0.62425845    -0.29300
H735        H  0.43183336  0.03475825  0.64066639     0.14900
H736        H  0.35028287  0.94773816  0.62412420     0.15400
C737        C  0.05612977  0.64761390  0.63493846    -0.14200
C738        C  0.01815724  0.61018162  0.62871796    -0.29300
H739        H  0.07195564  0.67794210  0.62584710     0.14900
H740        H  0.00184558  0.58109396  0.63863435     0.15400
C741        C  0.19150998  0.74380709  0.66496793    -0.16200
C742        C  0.22410056  0.78160811  0.66431157     0.07800
C743        C  0.26435002  0.82443100  0.66490256     0.09700
C744        C  0.30059839  0.85889417  0.66660208    -0.17100
C745        C  0.35387767  0.27592793  0.64556445    -0.14200
C746        C  0.34517771  0.25667067  0.62718434    -0.29300
H747        H  0.34168109  0.25373779  0.65857865     0.14900
H748        H  0.32517811  0.22014813  0.62664267     0.15400
C749        C  0.67278208  0.97021720  0.64085417    -0.14200
C750        C  0.68794009  0.96771788  0.62246038    -0.29300
H751        H  0.66715154  0.99721075  0.64399624     0.14900
H752        H  0.69490582  0.94177664  0.61917665     0.15400
C753        C  0.56007151  0.90971102  0.68325486    -0.16200
C754        C  0.52921524  0.91538201  0.68430246     0.07800
C755        C  0.49290617  0.92180886  0.68388433     0.09700
C756        C  0.46202063  0.92729622  0.68227283    -0.17100
C757        C  0.69854878  0.64012324  0.63322996    -0.14200
C758        C  0.69051863  0.59971911  0.62790917    -0.29300
H759        H  0.71408885  0.66719416  0.62225177     0.14900
H760        H  0.67392828  0.57168223  0.63830372     0.15400
C761        C  0.62414553  0.81712533  0.66784314    -0.16200
C762        C  0.62018130  0.78108548  0.66626395     0.07800
C763        C  0.61963260  0.74078705  0.66580495     0.09700
C764        C  0.62400836  0.70915120  0.66637498    -0.17100
C765        C  0.57776369  0.54866302  0.66953805    -0.16200
C766        C  0.54765135  0.50971004  0.66793138     0.07800
C767        C  0.50837048  0.46642475  0.66552234     0.09700
C768        C  0.47135160  0.43293896  0.66356116    -0.17100
C769        C  0.02857797  0.63310732  0.36908591    -0.14200
C770        C  0.01917673  0.64455788  0.38702650    -0.29300
H771        H  0.05621796  0.62771219  0.36814407     0.14900
H772        H  0.99117314  0.64916493  0.38856315     0.15400
C773        C  0.95645024  0.51650049  0.32694793    -0.16200
C774        C  0.95318090  0.48068389  0.32710489     0.07800
C775        C  0.95178139  0.44001494  0.32828552     0.09700
C776        C  0.95281175  0.40655765  0.33005418    -0.17100
C777        C  0.39115665  0.36285121  0.37805341    -0.14200
C778        C  0.37165282  0.33748548  0.39469859    -0.29300
H779        H  0.39672663  0.39626444  0.37727908     0.14900
H780        H  0.36453029  0.30352622  0.39541141     0.15400
C781        C  0.70880282  0.65894314  0.38272365    -0.14200
C782        C  0.66765101  0.64896921  0.38836757    -0.29300
H783        H  0.73534165  0.67205542  0.39400432     0.14900
H784        H  0.64023172  0.63475837  0.37758144     0.15400
C785        C  0.79624906  0.62111448  0.33635813    -0.16200
C786        C  0.82995425  0.62100759  0.33294014     0.07800
C787        C  0.87014549  0.62219748  0.32904165     0.09700
C788        C  0.90397768  0.62158840  0.32714495    -0.17100
C789        C  0.51415544  0.44018015  0.33923039    -0.16200
C790        C  0.54816034  0.47707917  0.33800696     0.07800
C791        C  0.59114450  0.51747336  0.33732815     0.09700
C792        C  0.62926091  0.54989855  0.33747550    -0.17100
C793        C  0.05465036  0.33111183  0.61939535    -0.14200
C794        C  0.05625500  0.35254602  0.63662403    -0.29300
H795        H  0.07797630  0.32040913  0.61686157     0.14900
H796        H  0.03170111  0.36180536  0.63914111     0.15400
C797        C  0.31235563  0.38708211  0.65606570    -0.16200
C798        C  0.28239688  0.39415581  0.65554446     0.07800
C799        C  0.24471163  0.39825544  0.65718333     0.09700
C800        C  0.21086372  0.39838784  0.65997069    -0.17100
C801        C  0.12319545  0.58028163  0.67601407    -0.16200
C802        C  0.12626829  0.54780287  0.67666597     0.07800
C803        C  0.12841054  0.50890361  0.67605944     0.09700
C804        C  0.13010768  0.47570391  0.67456743    -0.17100
C805        C  0.38554362  0.98368693  0.38362285    -0.14200
C806        C  0.37995834  0.01803818  0.38057547    -0.29300
H807        H  0.40106871  0.97429181  0.37210086     0.14900
H808        H  0.36586978  0.02783594  0.39268132     0.15400
C809        C  0.49729916  0.05783291  0.33972761    -0.16200
C810        C  0.52678450  0.05027116  0.33812653     0.07800
C811        C  0.56403333  0.04543150  0.33693992     0.09700
C812        C  0.59741704  0.04381277  0.33682599    -0.17100
C813        C  0.45707617  0.27880711  0.34890083    -0.16200
C814        C  0.46060657  0.24672640  0.35014901     0.07800
C815        C  0.45906885  0.20593424  0.35027816     0.09700
C816        C  0.45283955  0.16886943  0.34928195    -0.17100
C817        C  0.69940122  0.66677404  0.29194629    -0.14200
C818        C  0.71423567  0.68725111  0.30995124    -0.29300
H819        H  0.68234648  0.63036798  0.29109030     0.14900
H820        H  0.73328309  0.72372238  0.31083353     0.15400
C821        C  0.70833380  0.67617697  0.16349073    -0.11000
C822        C  0.71613427  0.69082167  0.18052193    -0.12600
C823        C  0.39028946  0.32455923  0.28818348    -0.14200
C824        C  0.38253600  0.33658672  0.30638244    -0.29300
H825        H  0.41936175  0.32159948  0.28636635     0.14900
H826        H  0.35543412  0.34252006  0.30837337     0.15400
C827        C  0.53731648  0.46113084  0.10631331    -0.11000
C828        C  0.57112967  0.49828605  0.10544232    -0.12600
C829        C  0.35700450  0.32512947  0.18327617    -0.11000
C830        C  0.37383208  0.33303900  0.16664280    -0.12600
C831        C  0.02305207  0.32980780  0.28554309    -0.14200
C832        C  0.99949000  0.30510584  0.30173283    -0.29300
H833        H  0.03517386  0.36530281  0.28487954     0.14900
H834        H  0.98898579  0.26998800  0.30255732     0.15400
C835        C  0.15692779  0.28341799  0.23705159    -0.11000
C836        C  0.19141306  0.28375762  0.23824757    -0.12600
C837        C  0.01453294  0.32479301  0.15987381    -0.11000
C838        C  0.02417193  0.31698280  0.17620010    -0.12600
C839        C  0.87781942  0.12087377  0.23182781    -0.11000
C840        C  0.91381832  0.15592639  0.23150512    -0.12600
C841        C  0.69109686  0.00417034  0.28483151    -0.14200
C842        C  0.71101094  0.01897847  0.30298307    -0.29300
H843        H  0.65643031  0.99425836  0.28260156     0.14900
H844        H  0.74545114  0.02762332  0.30494442     0.15400
C845        C  0.75023067  0.84749782  0.23871062    -0.11000
C846        C  0.74965988  0.88144641  0.23831921    -0.12600
C847        C  0.84199984  0.21938243  0.10212639    -0.11000
C848        C  0.80643622  0.18378223  0.10214070    -0.12600
C849        C  0.70652173  0.01551069  0.15959195    -0.11000
C850        C  0.71558859  0.00840468  0.17617175    -0.12600
C851        C  0.82367106  0.58180560  0.11276372    -0.11000
C852        C  0.79085553  0.58430489  0.11142171    -0.12600
C853        C  0.96479615  0.48581563  0.10808430    -0.11000
C854        C  0.96755729  0.45319498  0.10685274    -0.12600
C855        C  0.90375946  0.72794884  0.24449024    -0.11000
C856        C  0.87063561  0.73028917  0.24383461    -0.12600
C857        C  0.05544551  0.65278784  0.30088057    -0.14200
C858        C  0.06470123  0.66885933  0.28183052    -0.29300
H859        H  0.08083288  0.64775699  0.30731362     0.14900
H860        H  0.09553423  0.67364768  0.27542976     0.15400
C861        C  0.99403018  0.66401192  0.18422444    -0.11000
C862        C  0.98623780  0.64747167  0.16751522    -0.12600
C863        C  0.27482192  0.11119841  0.24425065    -0.11000
C864        C  0.27737032  0.14677449  0.24389960    -0.12600
C865        C  0.37771507  0.04766225  0.29002845    -0.14200
C866        C  0.36919015  0.02847490  0.30838706    -0.29300
H867        H  0.40714878  0.08138334  0.28800430     0.14900
H868        H  0.34144081  0.99400464  0.31064026     0.15400
C869        C  0.13607155  0.84370905  0.24511202    -0.11000
C870        C  0.17143669  0.87952320  0.24554718    -0.12600
C871        C  0.45017507  0.19303719  0.11383109    -0.11000
C872        C  0.45067176  0.22768495  0.11365883    -0.12600
C873        C  0.53598177  0.05280187  0.10920698    -0.11000
C874        C  0.56949620  0.05146119  0.10749077    -0.12600
C875        C  0.34676436  0.00766653  0.18713735    -0.11000
C876        C  0.36551167  0.01687659  0.17087821    -0.12600
C877        C  0.73771798  0.70678772  0.06084747    -0.14200
C878        C  0.71991667  0.69763099  0.04213127    -0.29300
H879        H  0.77088281  0.73684316  0.06318613     0.14900
H880        H  0.68602958  0.66901765  0.03946901     0.15400
C881        C  0.34868136  0.01192984  0.06444343    -0.14200
C882        C  0.36295756  0.00416488  0.04693348    -0.29300
H883        H  0.31804486  0.01251704  0.06458256     0.14900
H884        H  0.39227706  0.00138817  0.04643108     0.15400
C885        C  0.69568877  0.00028499  0.05130915    -0.14200
C886        C  0.71613312  0.02525385  0.03476500    -0.29300
H887        H  0.68382611  0.96485094  0.05166494     0.14900
H888        H  0.72739081  0.06062556  0.03494843     0.15400
C889        C  0.73655780  0.91749816  0.99315110    -0.16200
C890        C  0.73875977  0.88451935  0.99467557     0.07800
C891        C  0.74624904  0.84928163  0.99798154     0.09700
C892        C  0.75522269  0.82107516  0.00095460    -0.17100
C893        C  0.34486575  0.28248606  0.06232446    -0.14200
C894        C  0.35352262  0.30322622  0.04431906    -0.29300
H895        H  0.31721569  0.24762341  0.06362117     0.14900
H896        H  0.37912512  0.33877699  0.04287769     0.15400
C897        C  0.30048648  0.06676578  0.99999830    -0.16200
C898        C  0.29453283  0.09721526  0.99841756     0.07800
C899        C  0.29001321  0.13454510  0.99852275     0.09700
C900        C  0.28992801  0.16852783  0.00009942    -0.17100
C901        C  0.01163730  0.31114336  0.03707487    -0.14200
C902        C  0.03321840  0.33386021  0.05396026    -0.29300
H903        H  0.97607108  0.29862262  0.03528204     0.14900
H904        H  0.06913366  0.34823171  0.05557388     0.15400
C905        C  0.22204488  0.25931471  0.01195984    -0.16200
C906        C  0.19022879  0.26340773  0.01309101     0.07800
C907        C  0.15220547  0.26700368  0.01311249     0.09700
C908        C  0.11961476  0.26973599  0.01169842    -0.17100
C909        C  0.95608537  0.19213588  0.99798603    -0.16200
C910        C  0.91925947  0.15810514  0.99697950     0.07800
C911        C  0.87668349  0.11743643  0.99662455     0.09700
C912        C  0.84042614  0.08259994  0.99665211    -0.17100
C913        C  0.01164490  0.67143769  0.04582039    -0.14200
C914        C  0.97205550  0.63827391  0.05330753    -0.29300
H915        H  0.04270097  0.68332018  0.05406936     0.14900
H916        H  0.94190924  0.62499873  0.04412370     0.15400
C917        C  0.11766909  0.80076858  0.01545800    -0.16200
C918        C  0.15641110  0.83138662  0.01612976     0.07800
C919        C  0.20012017  0.87014066  0.01538957     0.09700
C920        C  0.23493938  0.90591002  0.01368765    -0.17100
C921        C  0.95882286  0.74879015  0.00210564    -0.16200
C922        C  0.93083029  0.75861004  0.00127622     0.07800
C923        C  0.89574527  0.76693960  0.00160885     0.09700
C924        C  0.86209162  0.76809316  0.00246490    -0.17100
C925        C  0.72350742  0.69132957  0.95161556    -0.14200
C926        C  0.71054109  0.69569290  0.97024206    -0.29300
H927        H  0.75783559  0.70078801  0.94868092     0.14900
H928        H  0.67642124  0.68783960  0.97254216     0.15400
C929        C  0.73491922  0.69211454  0.71452291    -0.14200
C930        C  0.70261687  0.65272007  0.70645709    -0.29300
H931        H  0.74739544  0.72277061  0.70587275     0.14900
H932        H  0.69117230  0.62121919  0.71417834     0.15400
C933        C  0.70948361  0.66695016  0.82728833    -0.11000
C934        C  0.69252553  0.66162948  0.84379260    -0.12600
C935        C  0.36052265  0.31898568  0.95553129    -0.14200
C936        C  0.34223426  0.32154984  0.97301472    -0.29300
H937        H  0.36913025  0.29389965  0.95352303     0.14900
H938        H  0.33500049  0.34771402  0.97497004     0.15400
C939        C  0.49817786  0.50294154  0.90603232    -0.11000
C940        C  0.53346362  0.53853459  0.90477943    -0.12600
C941        C  0.36437936  0.33698916  0.72232752    -0.14200
C942        C  0.36879090  0.32100388  0.70459104    -0.29300
H943        H  0.36713323  0.36916614  0.72274369     0.14900
H944        H  0.36912010  0.29042360  0.70406268     0.15400
C945        C  0.35744130  0.31584875  0.83214837    -0.11000
C946        C  0.36351106  0.33241640  0.84870235    -0.12600
C947        C  0.35760516  0.97101050  0.97577616    -0.14200
C948        C  0.37954989  0.99358401  0.95893494    -0.29300
H949        H  0.34696975  0.93597613  0.97736052     0.14900
H950        H  0.39174962  0.02900552  0.95744772     0.15400
C951        C  0.38075612  0.99339351  0.72700375    -0.14200
C952        C  0.35850957  0.97267871  0.70991237    -0.29300
H953        H  0.41597019  0.00471411  0.72864701     0.14900
H954        H  0.32372748  0.96290811  0.70811002     0.15400
C955        C  0.32827403  0.15476921  0.77629132    -0.11000
C956        C  0.32827830  0.12050080  0.77717634    -0.12600
C957        C  0.35657226  0.98358589  0.83521297    -0.11000
C958        C  0.36440445  0.97392147  0.85150172    -0.12600
C959        C  0.25415326  0.81219395  0.90858731    -0.11000
C960        C  0.21779883  0.77768322  0.90925283    -0.12600
C961        C  0.02889865  0.67009738  0.95658780    -0.14200
C962        C  0.04922869  0.68675719  0.97452949    -0.29300
H963        H  0.99551716  0.66364544  0.95385405     0.14900
H964        H  0.08209739  0.69173195  0.97719099     0.15400
C965        C  0.16179881  0.84191099  0.77524861    -0.11000
C966        C  0.19677651  0.87801077  0.77592180    -0.12600
C967        C  0.05710987  0.65780199  0.72362431    -0.14200
C968        C  0.07386808  0.67911316  0.70589181    -0.29300
H969        H  0.05071973  0.62437533  0.72599651     0.14900
H970        H  0.07907882  0.71217265  0.70369458     0.15400
C971        C  0.05430023  0.68344172  0.83240805    -0.11000
C972        C  0.06077389  0.67569414  0.84935317    -0.12600
C973        C  0.88428027  0.69993552  0.77311417    -0.11000
C974        C  0.91872824  0.70018182  0.77256039    -0.12600
C975        C  0.26184959  0.40104516  0.89869086    -0.11000
C976        C  0.22908048  0.40384727  0.89792055    -0.12600
C977        C  0.04879832  0.32628467  0.96616077    -0.14200
C978        C  0.08644518  0.36254602  0.95881577    -0.29300
H979        H  0.01775512  0.30995247  0.95750753     0.14900
H980        H  0.11628746  0.37971286  0.96828766     0.15400
C981        C  0.08841095  0.54035435  0.90293650    -0.11000
C982        C  0.09149586  0.50791487  0.90137060    -0.12600
C983        C  0.19620386  0.25621739  0.77582034    -0.11000
C984        C  0.16243963  0.25714131  0.77648486    -0.12600
C985        C  0.07921590  0.30817953  0.71519089    -0.14200
C986        C  0.08054014  0.34399921  0.70729924    -0.29300
H987        H  0.09226726  0.29152205  0.70631237     0.14900
H988        H  0.06515200  0.35950805  0.71528044     0.15400
C989        C  0.05883796  0.32434340  0.82813324    -0.11000
C990        C  0.06652276  0.34238806  0.84451599    -0.12600
C991        C  0.64595600  0.81551545  0.90536888    -0.11000
C992        C  0.64554798  0.78103145  0.90416217    -0.12600
C993        C  0.52533898  0.92249022  0.90774161    -0.11000
C994        C  0.49155493  0.92343680  0.90808327    -0.12600
C995        C  0.71163303  0.03907391  0.96592035    -0.14200
C996        C  0.69899252  0.03334337  0.94637897    -0.29300
H997        H  0.71716366  0.07000626  0.97246441     0.14900
H998        H  0.69720398  0.06068648  0.93991081     0.15400
C999        C  0.78582953  0.86991436  0.78239945    -0.11000
C1000       C  0.78570494  0.83564856  0.78159569    -0.12600
C1001       C  0.73072259  0.95259234  0.71844452    -0.14200
C1002       C  0.69556007  0.95374265  0.71135672    -0.29300
H1003       H  0.74489447  0.93743396  0.70926001     0.14900
H1004       H  0.68260828  0.97106471  0.71973036     0.15400
C1005       C  0.88711597  0.11211181  0.77443994    -0.11000
C1006       C  0.92168742  0.14853044  0.77416485    -0.12600
C1007       C  0.71738835  0.97295002  0.83037472    -0.11000
C1008       C  0.70068757  0.96654805  0.84694974    -0.12600
loop_ 
_geom_bond_atom_site_label_1 
_geom_bond_atom_site_label_2 
_geom_bond_distance 
_geom_bond_site_symmetry_2 
_ccdc_geom_bond_type 
In1           O3   2.237       .  S
In1           O4   2.257       .  S
In1          O12   2.255   1_565  S
In1           O6   2.237   1_565  S
In1           O8   2.247       .  S
In1           O9   2.272       .  S
In1          O10   2.241       .  S
In1          O13   2.232       .  S
C2            O8   1.261       .  A
C2           O10   1.260       .  A
C2          C999   1.434       .  S
O3           C11   1.257       .  A
O4           C11   1.261       .  A
C5           O12   1.259       .  A
C5            O6   1.258       .  A
C5         C1005   1.434       .  S
C7            O9   1.263       .  A
C7           O13   1.257       .  A
C7         C1001   1.473       .  S
C11        C1007   1.435       .  S
In14         O16   2.245       .  S
In14         O17   2.248       .  S
In14         O25   2.233       .  S
In14         O19   2.256       .  S
In14         O21   2.247       .  S
In14         O22   2.224   1_565  S
In14         O23   2.262       .  S
In14         O26   2.284       .  S
C15          O21   1.258       .  A
C15          O23   1.261       .  A
C15         C991   1.440       .  S
O16          C24   1.259       .  A
O17          C24   1.261       .  A
C18          O25   1.258       .  A
C18          O19   1.261       .  A
C18         C993   1.434       .  S
C20          O22   1.258   1_565  A
C20          O26   1.260       .  A
C20         C996   1.474   1_565  S
C24        C1008   1.435       .  S
In27         O29   2.231       .  S
In27         O30   2.290       .  S
In27         O38   2.264   1_455  S
In27         O32   2.233       .  S
In27         O34   2.234       .  S
In27         O35   2.272       .  S
In27         O36   2.245       .  S
In27         O39   2.248       .  S
C28          O34   1.259       .  A
C28          O36   1.262       .  A
C28         C984   1.433       .  S
O29          C37   1.256       .  A
O30          C37   1.265       .  A
C31          O38   1.260       .  A
C31          O32   1.256   1_655  A
C31        C1006   1.434       .  S
C33          O35   1.262       .  A
C33          O39   1.257       .  A
C33         C989   1.443       .  S
C37         C985   1.477       .  S
In40         O42   2.223       .  S
In40         O43   2.276       .  S
In40         O51   2.251       .  S
In40         O45   2.245       .  S
In40         O47   2.258       .  S
In40         O48   2.261       .  S
In40         O49   2.239       .  S
In40         O52   2.245       .  S
C41          O47   1.264       .  A
C41          O49   1.259       .  A
C41         C976   1.439       .  S
O42          C50   1.258       .  A
O43          C50   1.266       .  A
C44          O51   1.261       .  A
C44          O45   1.261       .  A
C44         C982   1.439       .  S
C46          O48   1.264       .  A
C46          O52   1.259       .  A
C46         C990   1.443       .  S
C50         C978   1.473       .  S
In53         O55   2.253       .  S
In53         O56   2.253       .  S
In53         O64   2.258   1_455  S
In53         O58   2.244   1_455  S
In53         O60   2.249       .  S
In53         O61   2.242       .  S
In53         O62   2.249       .  S
In53         O65   2.266       .  S
C54          O60   1.259       .  A
C54          O62   1.259       .  A
C54         C965   1.436       .  S
O55          C63   1.258       .  A
O56          C63   1.259       .  A
C57          O64   1.259       .  A
C57          O58   1.258       .  A
C57         C974   1.436       .  S
C59          O61   1.259       .  A
C59          O65   1.261       .  A
C59         C967   1.475       .  S
C63         C971   1.437       .  S
In66         O68   2.250       .  S
In66         O69   2.255       .  S
In66         O77   2.271       .  S
In66         O71   2.243       .  S
In66         O73   2.248       .  S
In66         O74   2.256       .  S
In66         O75   2.241       .  S
In66         O78   2.269       .  S
C67          O73   1.259       .  A
C67          O75   1.258       .  A
C67         C960   1.431       .  S
O68          C76   1.258       .  A
O69          C76   1.259       .  A
C70          O77   1.260       .  A
C70          O71   1.255       .  A
C70         C981   1.438       .  S
C72          O74   1.259       .  A
C72          O78   1.260       .  A
C72         C961   1.480       .  S
C76         C972   1.437       .  S
In79         O81   2.262       .  S
In79         O82   2.243   1_565  S
In79         O90   2.261   1_565  S
In79         O84   2.249   1_565  S
In79         O86   2.255       .  S
In79         O87   2.253       .  S
In79         O88   2.247       .  S
In79         O91   2.262   1_565  S
C80          O86   1.260       .  A
C80          O88   1.258       .  A
C80         C966   1.436       .  S
O81          C89   1.260       .  A
O82          C89   1.259   1_545  A
C83          O90   1.259       .  A
C83          O84   1.258       .  A
C83         C956   1.440       .  S
C85          O87   1.257       .  A
C85          O91   1.259   1_565  A
C85         C957   1.440       .  S
C89         C951   1.473       .  S
In92         O94   2.255       .  S
In92         O95   2.248       .  S
In92        O103   2.255       .  S
In92         O97   2.247       .  S
In92         O99   2.240       .  S
In92        O100   2.258       .  S
In92        O101   2.244       .  S
In92        O104   2.259       .  S
C93          O99   1.258       .  A
C93         O101   1.259       .  A
C93         C959   1.431       .  S
O94         C102   1.259       .  A
O95         C102   1.259       .  A
C96         O103   1.259       .  A
C96          O97   1.256       .  A
C96         C994   1.434       .  S
C98         O100   1.258       .  A
C98         O104   1.259       .  A
C98         C958   1.440       .  S
C102        C948   1.473       .  S
In105       O107   2.234       .  S
In105       O108   2.254       .  S
In105       O116   2.253       .  S
In105       O110   2.243       .  S
In105       O112   2.260       .  S
In105       O113   2.247       .  S
In105       O114   2.235       .  S
In105       O117   2.269       .  S
C106        O112   1.261       .  A
C106        O114   1.256       .  A
C106        C983   1.433       .  S
O107        C115   1.257       .  A
O108        C115   1.261       .  A
C109        O116   1.262       .  A
C109        O110   1.261       .  A
C109        C955   1.440       .  S
C111        O113   1.257       .  A
C111        O117   1.260       .  A
C111        C941   1.475       .  S
C115        C945   1.432       .  S
In118       O120   2.246       .  S
In118       O121   2.249       .  S
In118       O129   2.248       .  S
In118       O123   2.244       .  S
In118       O125   2.254       .  S
In118       O126   2.236       .  S
In118       O127   2.258       .  S
In118       O130   2.269       .  S
C119        O125   1.258       .  A
C119        O127   1.259       .  A
C119        C975   1.439       .  S
O120        C128   1.258       .  A
O121        C128   1.259       .  A
C122        O129   1.257       .  A
C122        O123   1.259       .  A
C122        C939   1.433       .  S
C124        O126   1.258       .  A
C124        O130   1.261       .  A
C124        C935   1.474       .  S
C128        C946   1.433       .  S
In131       O133   2.232       .  S
In131       O134   2.278       .  S
In131       O142   2.255       .  S
In131       O136   2.233       .  S
In131       O138   2.249       .  S
In131       O139   2.263       .  S
In131       O140   2.240       .  S
In131       O143   2.238       .  S
C132        O138   1.261       .  A
C132        O140   1.260       .  A
C132       C1000   1.434       .  S
O133        C141   1.257       .  A
O134        C141   1.264       .  A
C135        O142   1.261       .  A
C135        O136   1.259       .  A
C135        C973   1.435       .  S
C137        O139   1.262       .  A
C137        O143   1.258       .  A
C137        C933   1.439       .  S
C141        C929   1.474       .  S
In144       O146   2.258       .  S
In144       O147   2.237       .  S
In144       O155   2.252       .  S
In144       O149   2.240       .  S
In144       O151   2.258       .  S
In144       O152   2.254       .  S
In144       O153   2.256       .  S
In144       O156   2.254       .  S
C145        O151   1.259       .  A
C145        O153   1.258       .  A
C145        C992   1.440       .  S
O146        C154   1.260       .  A
O147        C154   1.260       .  A
C148        O155   1.259       .  A
C148        O149   1.258       .  A
C148        C940   1.433       .  S
C150        O152   1.260       .  A
C150        O156   1.260       .  A
C150        C934   1.440       .  S
C154        C925   1.471       .  S
C157        C158   1.526       .  S
C157        C163   1.533   1_554  S
C157        C161   1.530   1_655  S
C157        C921   1.468       .  S
C158        H165   1.087       .  S
C158        C159   1.368   1_655  D
C159        C160   1.544       .  S
C159        C913   1.487       .  S
C160        C164   1.549   1_554  S
C160        C162   1.533       .  S
C160        H166   1.111       .  S
C161        H167   1.087       .  S
C161        C162   1.361       .  D
C162        C917   1.436       .  S
C163        H168   1.084       .  S
C163        C164   1.374   1_655  D
C164        C962   1.494       .  S
C169        C170   1.527       .  S
C169        C175   1.523   1_554  S
C169        C173   1.531       .  S
C169        C908   1.464       .  S
C170        H177   1.085       .  S
C170        C171   1.372       .  D
C171        C172   1.548       .  S
C171        C901   1.488       .  S
C172        C176   1.546   1_554  S
C172        C174   1.538       .  S
C172        H178   1.111   1_454  S
C173        H179   1.087       .  S
C173        C174   1.362       .  D
C174        C909   1.441   1_454  S
C175        H180   1.087       .  S
C175        C176   1.367       .  D
C176        C977   1.487       .  S
C181        C182   1.524       .  S
C181        C187   1.527   1_554  S
C181        C185   1.530       .  S
C181        C900   1.462       .  S
C182        H189   1.087       .  S
C182        C183   1.365       .  D
C183        C184   1.544       .  S
C183        C894   1.484       .  S
C184        C188   1.546   1_554  S
C184        C186   1.539       .  S
C184        H190   1.111       .  S
C185        H191   1.086       .  S
C185        C186   1.364       .  D
C186        C905   1.437       .  S
C187        H192   1.084       .  S
C187        C188   1.371       .  D
C188        C936   1.493       .  S
C193        C194   1.545       .  S
C193        C199   1.536   1_556  S
C193        C197   1.535   1_565  S
C193        C889   1.473       .  S
C194        H201   1.078       .  S
C194        C195   1.375   1_565  D
C195        C196   1.544       .  S
C195        C995   1.492       .  S
C196        C200   1.536   1_556  S
C196        C198   1.529       .  S
C196        H202   1.112   1_556  S
C197        H203   1.087   1_545  S
C197        C198   1.359       .  D
C198        C912   1.442       .  S
C199        H204   1.084       .  S
C199        C200   1.368   1_565  D
C200        C886   1.489       .  S
C205        C206   1.528   1_554  S
C205        C211   1.524       .  S
C205        C209   1.527   1_545  S
C205        C897   1.462   1_554  S
C206        H213   1.085       .  S
C206        C207   1.372   1_545  D
C207        C208   1.546   1_556  S
C207        C947   1.488       .  S
C208        C212   1.543   1_565  S
C208        C210   1.537       .  S
C208        H214   1.111       .  S
C209        H215   1.087       .  S
C209        C210   1.361       .  D
C210        C920   1.436       .  S
C211        H216   1.087       .  S
C211        C212   1.365       .  D
C212        C882   1.480       .  S
C217        C218   1.527   1_554  S
C217        C223   1.522       .  S
C217        C221   1.535       .  S
C217        C924   1.467       .  S
C218        H225   1.084       .  S
C218        C219   1.369       .  D
C219        C220   1.545   1_556  S
C219        C926   1.491       .  S
C220        C224   1.549       .  S
C220        C222   1.542       .  S
C220        H226   1.111       .  S
C221        H227   1.086       .  S
C221        C222   1.369       .  D
C222        C892   1.447       .  S
C223        H228   1.087       .  S
C223        C224   1.365       .  D
C224        C878   1.490       .  S
In229       O231   2.263       .  S
In229       O232   2.243       .  S
In229       O240   2.258       .  S
In229       O234   2.251       .  S
In229       O236   2.275       .  S
In229       O237   2.270       .  S
In229       O238   2.252       .  S
In229       O241   2.254       .  S
C230        O236   1.261       .  A
C230        O238   1.257       .  A
C230        C871   1.443       .  S
O231        C239   1.260       .  A
O232        C239   1.259       .  A
C233        O240   1.260       .  A
C233        O234   1.260       .  A
C233        C873   1.439       .  S
C235        O237   1.260       .  A
C235        O241   1.258       .  A
C235        C876   1.443       .  S
C239        C881   1.471       .  S
In242       O244   2.275   1_545  S
In242       O245   2.232       .  S
In242       O253   2.259   1_545  S
In242       O247   2.249   1_545  S
In242       O249   2.245       .  S
In242       O250   2.265       .  S
In242       O251   2.264       .  S
In242       O254   2.252       .  S
C243        O249   1.257       .  A
C243        O251   1.259       .  A
C243        C863   1.438       .  S
O244        C252   1.262   1_565  A
O245        C252   1.258       .  A
C246        O253   1.260       .  A
C246        O247   1.257       .  A
C246        C870   1.437       .  S
C248        O250   1.261       .  A
C248        O254   1.259       .  A
C248        C875   1.443       .  S
C252        C865   1.473       .  S
In255       O257   2.251       .  S
In255       O258   2.259   1_455  S
In255       O266   2.245       .  S
In255       O260   2.254       .  S
In255       O262   2.252   1_455  S
In255       O263   2.233       .  S
In255       O264   2.269   1_455  S
In255       O267   2.283       .  S
C256        O262   1.257       .  A
C256        O264   1.261       .  A
C256        C855   1.443       .  S
O257        C265   1.260       .  A
O258        C265   1.262   1_655  A
C259        O266   1.259       .  A
C259        O260   1.260       .  A
C259        C869   1.437       .  S
C261        O263   1.257       .  A
C261        O267   1.259       .  A
C261        C858   1.476       .  S
C265        C861   1.442   1_455  S
In268       O270   2.245       .  S
In268       O271   2.263       .  S
In268       O279   2.253       .  S
In268       O273   2.238       .  S
In268       O275   2.251       .  S
In268       O276   2.282       .  S
In268       O277   2.235       .  S
In268       O280   2.224       .  S
C269        O275   1.262       .  A
C269        O277   1.261       .  A
C269        C851   1.435       .  S
O270        C278   1.259       .  A
O271        C278   1.263       .  A
C272        O279   1.260       .  A
C272        O273   1.259       .  A
C272        C853   1.435       .  S
C274        O276   1.266       .  A
C274        O280   1.256       .  A
C274        C914   1.474       .  S
C278        C862   1.442       .  S
In281       O283   2.255       .  S
In281       O284   2.262       .  S
In281       O292   2.265       .  S
In281       O286   2.242       .  S
In281       O288   2.256       .  S
In281       O289   2.260   1_545  S
In281       O290   2.246       .  S
In281       O293   2.248       .  S
C282        O288   1.259       .  A
C282        O290   1.258       .  A
C282        C848   1.436       .  S
O283        C291   1.257       .  A
O284        C291   1.259       .  A
C285        O292   1.261       .  A
C285        O286   1.257       .  A
C285        C874   1.439       .  S
C287        O289   1.261   1_545  A
C287        O293   1.260       .  A
C287        C885   1.478       .  S
C291        C849   1.439       .  S
In294       O296   2.260   1_545  S
In294       O297   2.255       .  S
In294       O305   2.257   1_545  S
In294       O299   2.246   1_545  S
In294       O301   2.244       .  S
In294       O302   2.242   1_545  S
In294       O303   2.249       .  S
In294       O306   2.264       .  S
C295        O301   1.258       .  A
C295        O303   1.259       .  A
C295        C839   1.434       .  S
O296        C304   1.258   1_565  A
O297        C304   1.258       .  A
C298        O305   1.259       .  A
C298        O299   1.257       .  A
C298        C846   1.436       .  S
C300        O302   1.259   1_545  A
C300        O306   1.260       .  A
C300        C841   1.475       .  S
C304        C850   1.439       .  S
In307       O309   2.257       .  S
In307       O310   2.251   1_655  S
In307       O318   2.258   1_655  S
In307       O312   2.244       .  S
In307       O314   2.256       .  S
In307       O315   2.260   1_655  S
In307       O316   2.246       .  S
In307       O319   2.262       .  S
C308        O314   1.260       .  A
C308        O316   1.259       .  A
C308        C847   1.436       .  S
O309        C317   1.259   1_655  A
O310        C317   1.259       .  A
C311        O318   1.259   1_655  A
C311        O312   1.258       .  A
C311        C854   1.435       .  S
C313        O315   1.259   1_655  A
C313        O319   1.259       .  A
C313        C837   1.442   1_655  S
C317        C902   1.474       .  S
In320       O322   2.266       .  S
In320       O323   2.248       .  S
In320       O331   2.261       .  S
In320       O325   2.255       .  S
In320       O327   2.244   1_455  S
In320       O328   2.261       .  S
In320       O329   2.243   1_455  S
In320       O332   2.262       .  S
C321        O327   1.261       .  A
C321        O329   1.260       .  A
C321        C840   1.434       .  S
O322        C330   1.259       .  A
O323        C330   1.259       .  A
C324        O331   1.258       .  A
C324        O325   1.257       .  A
C324        C835   1.439       .  S
C326        O328   1.259       .  A
C326        O332   1.259       .  A
C326        C838   1.442       .  S
C330        C831   1.475       .  S
In333       O335   2.245       .  S
In333       O336   2.261       .  S
In333       O344   2.259       .  S
In333       O338   2.250       .  S
In333       O340   2.272       .  S
In333       O341   2.246       .  S
In333       O342   2.259       .  S
In333       O345   2.266       .  S
C334        O340   1.259       .  A
C334        O342   1.257       .  A
C334        C872   1.444       .  S
O335        C343   1.259       .  A
O336        C343   1.261       .  A
C337        O344   1.260       .  A
C337        O338   1.260       .  A
C337        C827   1.441       .  S
C339        O341   1.259       .  A
C339        O345   1.259       .  A
C339        C893   1.473       .  S
C343        C830   1.440       .  S
In346       O348   2.246       .  S
In346       O349   2.265       .  S
In346       O357   2.261       .  S
In346       O351   2.244       .  S
In346       O353   2.246       .  S
In346       O354   2.244       .  S
In346       O355   2.264       .  S
In346       O358   2.283       .  S
C347        O353   1.258       .  A
C347        O355   1.260       .  A
C347        C864   1.438       .  S
O348        C356   1.258       .  A
O349        C356   1.261       .  A
C350        O357   1.261       .  A
C350        O351   1.258       .  A
C350        C836   1.439       .  S
C352        O354   1.258       .  A
C352        O358   1.261       .  A
C352        C823   1.479       .  S
C356        C829   1.440       .  S
In359       O361   2.250       .  S
In359       O362   2.252       .  S
In359       O370   2.248       .  S
In359       O364   2.247       .  S
In359       O366   2.265       .  S
In359       O367   2.258       .  S
In359       O368   2.254       .  S
In359       O371   2.246       .  S
C360        O366   1.261       .  A
C360        O368   1.258       .  A
C360        C856   1.443       .  S
O361        C369   1.259       .  A
O362        C369   1.260       .  A
C363        O370   1.260       .  A
C363        O364   1.261       .  A
C363        C845   1.437       .  S
C365        O367   1.261       .  A
C365        O371   1.259       .  A
C365        C822   1.439       .  S
C369        C817   1.474       .  S
In372       O374   2.283       .  S
In372       O375   2.244       .  S
In372       O383   2.262       .  S
In372       O377   2.254       .  S
In372       O379   2.253       .  S
In372       O380   2.273       .  S
In372       O381   2.250       .  S
In372       O384   2.237       .  S
C373        O379   1.259       .  A
C373        O381   1.259       .  A
C373        C852   1.435       .  S
O374        C382   1.261       .  A
O375        C382   1.258       .  A
C376        O383   1.259       .  A
C376        O377   1.258       .  A
C376        C828   1.441       .  S
C378        O380   1.262       .  A
C378        O384   1.255       .  A
C378        C821   1.438       .  S
C382        C877   1.477       .  S
C385        C386   1.527       .  S
C385        C391   1.525       .  S
C385        C389   1.531       .  S
C385        C816   1.465       .  S
C386        H393   1.087       .  S
C386        C387   1.364       .  D
C387        C388   1.549       .  S
C387        C806   1.483       .  S
C388        C392   1.544       .  S
C388        C390   1.538       .  S
C388        H394   1.110       .  S
C389        H395   1.086       .  S
C389        C390   1.365       .  D
C390        C809   1.438       .  S
C391        H396   1.087       .  S
C391        C392   1.367       .  D
C392        C866   1.486       .  S
C397        C398   1.526       .  S
C397        C403   1.528       .  S
C397        C401   1.531       .  S
C397        C800   1.467       .  S
C398        H405   1.083       .  S
C398        C399   1.371       .  D
C399        C400   1.550       .  S
C399        C794   1.492       .  S
C400        C404   1.545       .  S
C400        C402   1.539       .  S
C400        H406   1.111       .  S
C401        H407   1.087       .  S
C401        C402   1.362       .  D
C402        C804   1.441       .  S
C403        H408   1.085       .  S
C403        C404   1.369       .  D
C404        C986   1.491       .  S
C409        C410   1.530       .  S
C409        C415   1.520       .  S
C409        C413   1.538       .  S
C409        C785   1.469       .  S
C410        H417   1.087       .  S
C410        C411   1.368       .  D
C411        C412   1.554       .  S
C411        C781   1.489       .  S
C412        C416   1.545       .  S
C412        C414   1.537       .  S
C412        H418   1.109       .  S
C413        H419   1.087       .  S
C413        C414   1.368       .  D
C414        C792   1.445       .  S
C415        H420   1.087       .  S
C415        C416   1.360       .  D
C416        C818   1.474       .  S
C421        C422   1.524       .  S
C421        C427   1.526       .  S
C421        C425   1.528       .  S
C421        C813   1.465       .  S
C422        H429   1.087       .  S
C422        C423   1.366       .  D
C423        C424   1.552       .  S
C423        C824   1.491       .  S
C424        C428   1.553       .  S
C424        C426   1.546       .  S
C424        H430   1.111       .  S
C425        H431   1.087       .  S
C425        C426   1.364       .  D
C426        C789   1.445       .  S
C427        H432   1.084       .  S
C427        C428   1.371       .  D
C428        C777   1.497       .  S
C433        C434   1.541       .  S
C433        C439   1.535       .  S
C433        C437   1.532       .  S
C433        C788   1.468       .  S
C434        H441   1.076       .  S
C434        C435   1.373   1_655  D
C435        C436   1.546       .  S
C435        C857   1.491       .  S
C436        C440   1.538       .  S
C436        C438   1.531   1_455  S
C436        H442   1.112       .  S
C437        H443   1.087       .  S
C437        C438   1.358       .  D
C438        C773   1.438       .  S
C439        H444   1.084       .  S
C439        C440   1.368   1_655  D
C440        C769   1.493       .  S
C445        C446   1.524       .  S
C445        C451   1.521       .  S
C445        C449   1.533       .  S
C445        C764   1.465       .  S
C446        H453   1.086       .  S
C446        C447   1.364       .  D
C447        C448   1.551       .  S
C447        C757   1.481       .  S
C448        C452   1.550       .  S
C448        C450   1.540       .  S
C448        H454   1.110       .  S
C449        H455   1.086       .  S
C449        C450   1.366       .  D
C450        C765   1.444       .  S
C451        H456   1.088       .  S
C451        C452   1.366       .  D
C452        C930   1.486       .  S
C457        C458   1.525       .  S
C457        C463   1.530       .  S
C457        C461   1.531       .  S
C457        C761   1.466       .  S
C458        H465   1.086       .  S
C458        C459   1.367       .  D
C459        C460   1.544       .  S
C459       C1002   1.486       .  S
C460        C464   1.548       .  S
C460        C462   1.536       .  S
C460        H466   1.111       .  S
C461        H467   1.087       .  S
C461        C462   1.362       .  D
C462        C753   1.439       .  S
C463        H468   1.083       .  S
C463        C464   1.373       .  D
C464        C749   1.494       .  S
C469        C470   1.535       .  S
C469        C475   1.533       .  S
C469        C473   1.522       .  S
C469        C797   1.467       .  S
C470        H477   1.088       .  S
C470        C471   1.365       .  D
C471        C472   1.538       .  S
C471        C942   1.484       .  S
C472        C476   1.547       .  S
C472        C474   1.547       .  S
C472        H478   1.111       .  S
C473        H479   1.086       .  S
C473        C474   1.363       .  D
C474        C768   1.443       .  S
C475        H480   1.086       .  S
C475        C476   1.369       .  D
C476        C745   1.477       .  S
C481        C482   1.525       .  S
C481        C487   1.529       .  S
C481        C485   1.533       .  S
C481        C801   1.468       .  S
C482        H489   1.088       .  S
C482        C483   1.366       .  D
C483        C484   1.543       .  S
C483        C737   1.484       .  S
C484        C488   1.548       .  S
C484        C486   1.536       .  S
C484        H490   1.111       .  S
C485        H491   1.086       .  S
C485        C486   1.364       .  D
C486        C741   1.441       .  S
C487        H492   1.086       .  S
C487        C488   1.373       .  D
C488        C968   1.493       .  S
C493        C494   1.528       .  S
C493        C499   1.525       .  S
C493        C497   1.531       .  S
C493        C756   1.466       .  S
C494        H501   1.084       .  S
C494        C495   1.373       .  D
C495        C496   1.547       .  S
C495        C952   1.488       .  S
C496        C500   1.543       .  S
C496        C498   1.537       .  S
C496        H502   1.111       .  S
C497        H503   1.088       .  S
C497        C498   1.362       .  D
C498        C744   1.440       .  S
C499        H504   1.088       .  S
C499        C500   1.362       .  D
C500        C733   1.473   1_565  S
C505        C506   1.524       .  S
C505        C511   1.527       .  S
C505        C509   1.534       .  S
C505        C812   1.466       .  S
C506        H513   1.087   1_545  S
C506        C507   1.367       .  D
C507        C508   1.545       .  S
C507        C725   1.487   1_545  S
C508        C512   1.549       .  S
C508        C510   1.534       .  S
C508        H514   1.111       .  S
C509        H515   1.086       .  S
C509        C510   1.363       .  D
C510        C732   1.441       .  S
C511        H516   1.083       .  S
C511        C512   1.373       .  D
C512        C842   1.493       .  S
C517        C518   1.526       .  S
C517        C523   1.527       .  S
C517        C521   1.531       .  S
C517        C776   1.465       .  S
C518        H525   1.085       .  S
C518        C519   1.371       .  D
C519        C520   1.550       .  S
C519        C832   1.491       .  S
C520        C524   1.543       .  S
C520        C522   1.538       .  S
C520        H526   1.111       .  S
C521        H527   1.087       .  S
C521        C522   1.363       .  D
C522        C729   1.441       .  S
C523        H528   1.087       .  S
C523        C524   1.367       .  D
C524        C721   1.482   1_655  S
In529       O531   2.245       .  S
In529       O532   2.276       .  S
In529       O540   2.244       .  S
In529       O534   2.253       .  S
In529       O536   2.243       .  S
In529       O537   2.244       .  S
In529       O538   2.255       .  S
In529       O541   2.283       .  S
C530        O536   1.258       .  A
C530        O538   1.261       .  A
C530        C716   1.437       .  S
O531        C539   1.255       .  A
O532        C539   1.262       .  A
C533        O540   1.260       .  A
C533        O534   1.262       .  A
C533        C718   1.438       .  S
C535        O537   1.259       .  A
C535        O541   1.260       .  A
C535        C746   1.478       .  S
C539        C720   1.443       .  S
In542       O544   2.263       .  S
In542       O545   2.261       .  S
In542       O553   2.260       .  S
In542       O547   2.245       .  S
In542       O549   2.247       .  S
In542       O550   2.253       .  S
In542       O551   2.243       .  S
In542       O554   2.269       .  S
C543        O549   1.260       .  A
C543        O551   1.259       .  A
C543        C711   1.434       .  S
O544        C552   1.259       .  A
O545        C552   1.260       .  A
C546        O553   1.259       .  A
C546        O547   1.257       .  A
C546        C714   1.436       .  S
C548        O550   1.261       .  A
C548        O554   1.259       .  A
C548        C778   1.479       .  S
C552        C719   1.444       .  S
In555       O557   2.229       .  S
In555       O558   2.263   1_655  S
In555       O566   2.248       .  S
In555       O560   2.230       .  S
In555       O562   2.233       .  S
In555       O563   2.273   1_655  S
In555       O564   2.237   1_655  S
In555       O567   2.231       .  S
C556        O562   1.260       .  A
C556        O564   1.261   1_655  A
C556        C705   1.429       .  S
O557        C565   1.256   1_655  A
O558        C565   1.263       .  A
C559        O566   1.260       .  A
C559        O560   1.257       .  A
C559        C707   1.429       .  S
C561        O563   1.264       .  A
C561        O567   1.257   1_455  A
C561        C738   1.473       .  S
C565        C709   1.435       .  S
In568       O570   2.245       .  S
In568       O571   2.264       .  S
In568       O579   2.258       .  S
In568       O573   2.236       .  S
In568       O575   2.239       .  S
In568       O576   2.252       .  S
In568       O577   2.248       .  S
In568       O580   2.258       .  S
C569        O575   1.258       .  A
C569        O577   1.260       .  A
C569        C701   1.432       .  S
O570        C578   1.255       .  A
O571        C578   1.260       .  A
C572        O579   1.260       .  A
C572        O573   1.257       .  A
C572        C704   1.434       .  S
C574        O576   1.261       .  A
C574        O580   1.261       .  A
C574        C770   1.478       .  S
C578        C710   1.436       .  S
In581       O583   2.251       .  S
In581       O584   2.257       .  S
In581       O592   2.255       .  S
In581       O586   2.242       .  S
In581       O588   2.244       .  S
In581       O589   2.259       .  S
In581       O590   2.245       .  S
In581       O593   2.243       .  S
C582        O588   1.261       .  A
C582        O590   1.261       .  A
C582        C698   1.436       .  S
O583        C591   1.257       .  A
O584        C591   1.262       .  A
C585        O592   1.258       .  A
C585        O586   1.258       .  A
C585        C703   1.434       .  S
C587        O589   1.261       .  A
C587        O593   1.258       .  A
C587        C699   1.438       .  S
C591        C805   1.476       .  S
In594       O596   2.243       .  S
In594       O597   2.263   1_545  S
In594       O605   2.259       .  S
In594       O599   2.245       .  S
In594       O601   2.258       .  S
In594       O602   2.260   1_545  S
In594       O603   2.256       .  S
In594       O606   2.249       .  S
C595        O601   1.258       .  A
C595        O603   1.258       .  A
C595        C695   1.440       .  S
O596        C604   1.259       .  A
O597        C604   1.260   1_565  A
C598        O605   1.260       .  A
C598        O599   1.258       .  A
C598        C717   1.438       .  S
C600        O602   1.260   1_545  A
C600        O606   1.258       .  A
C600        C700   1.439   1_545  S
C604        C734   1.477   1_545  S
In607       O609   2.262       .  S
In607       O610   2.250   1_655  S
In607       O618   2.253       .  S
In607       O612   2.240       .  S
In607       O614   2.237       .  S
In607       O615   2.257   1_655  S
In607       O616   2.240   1_655  S
In607       O619   2.256       .  S
C608        O614   1.259       .  A
C608        O616   1.259   1_655  A
C608        C706   1.429       .  S
O609        C617   1.259   1_655  A
O610        C617   1.259       .  A
C611        O618   1.260       .  A
C611        O612   1.257       .  A
C611        C692   1.434       .  S
C613        O615   1.259       .  A
C613        O619   1.258   1_455  A
C613        C693   1.440       .  S
C617        C793   1.475       .  S
In620       O622   2.224       .  S
In620       O623   2.269       .  S
In620       O631   2.254       .  S
In620       O625   2.238       .  S
In620       O627   2.241       .  S
In620       O628   2.266       .  S
In620       O629   2.237       .  S
In620       O632   2.235       .  S
C621        O627   1.261       .  A
C621        O629   1.260       .  A
C621        C702   1.432       .  S
O622        C630   1.258       .  A
O623        C630   1.265       .  A
C624        O631   1.261       .  A
C624        O625   1.259       .  A
C624        C713   1.436       .  S
C626        O628   1.263       .  A
C626        O632   1.258       .  A
C626        C694   1.439       .  S
C630        C722   1.472       .  S
In633       O635   2.255       .  S
In633       O636   2.265       .  S
In633       O644   2.266       .  S
In633       O638   2.244       .  S
In633       O640   2.243       .  S
In633       O641   2.272       .  S
In633       O642   2.246       .  S
In633       O645   2.253       .  S
C634        O640   1.260       .  A
C634        O642   1.260       .  A
C634        C712   1.434       .  S
O635        C643   1.258       .  A
O636        C643   1.263       .  A
C637        O644   1.259       .  A
C637        O638   1.256       .  A
C637        C690   1.438       .  S
C639        O641   1.260       .  A
C639        O645   1.256       .  A
C639        C688   1.443       .  S
C643        C782   1.481       .  S
In646       O648   2.252       .  S
In646       O649   2.247       .  S
In646       O657   2.241       .  S
In646       O651   2.240       .  S
In646       O653   2.248       .  S
In646       O654   2.263       .  S
In646       O655   2.243       .  S
In646       O658   2.251       .  S
C647        O653   1.261       .  A
C647        O655   1.260       .  A
C647        C715   1.437       .  S
O648        C656   1.258       .  A
O649        C656   1.264       .  A
C650        O657   1.258       .  A
C650        O651   1.260       .  A
C650        C708   1.430       .  S
C652        O654   1.261       .  A
C652        O658   1.259       .  A
C652        C687   1.443       .  S
C656        C758   1.477       .  S
In659       O661   2.231       .  S
In659       O662   2.269       .  S
In659       O670   2.256       .  S
In659       O664   2.238       .  S
In659       O666   2.249       .  S
In659       O667   2.277       .  S
In659       O668   2.245       .  S
In659       O671   2.227       .  S
C660        O666   1.262       .  A
C660        O668   1.260       .  A
C660        C697   1.436       .  S
O661        C669   1.258       .  A
O662        C669   1.265       .  A
C663        O670   1.262       .  A
C663        O664   1.260       .  A
C663        C689   1.438       .  S
C665        O667   1.266       .  A
C665        O671   1.258       .  A
C665        C726   1.475       .  S
C669        C685   1.440       .  S
In672       O674   2.260       .  S
In672       O675   2.256   1_545  S
In672       O683   2.251       .  S
In672       O677   2.249       .  S
In672       O679   2.255       .  S
In672       O680   2.251   1_545  S
In672       O681   2.255       .  S
In672       O684   2.271       .  S
C673        O679   1.259       .  A
C673        O681   1.259       .  A
C673        C696   1.440       .  S
O674        C682   1.259       .  A
O675        C682   1.259   1_565  A
C676        O683   1.258       .  A
C676        O677   1.258       .  A
C676        C691   1.435       .  S
C678        O680   1.258       .  A
C678        O684   1.260   1_565  A
C678        C750   1.478       .  S
C682        C686   1.441       .  S
C685        C686   1.209   1_565  T
C687        C688   1.210       .  T
C689        C690   1.207       .  T
C691        C692   1.205       .  T
C693        C694   1.208       .  T
C695        C696   1.208       .  T
C697        C698   1.206       .  T
C699        C700   1.208       .  T
C701        C702   1.204       .  T
C703        C704   1.205       .  T
C705        C706   1.202       .  T
C707        C708   1.202       .  T
C709        C710   1.206       .  T
C711        C712   1.205       .  T
C713        C714   1.206       .  T
C715        C716   1.207       .  T
C717        C718   1.207       .  T
C719        C720   1.211       .  T
C721        H723   1.086   1_455  S
C721        C722   1.341       .  D
C722        H724   1.087       .  S
C725        H727   1.086   1_565  S
C725        C726   1.344       .  D
C726        H728   1.087       .  S
C729        C730   1.205       .  T
C730        C731   1.411       .  S
C731        C732   1.205       .  T
C733        H735   1.087       .  S
C733        C734   1.342   1_545  D
C734        H736   1.087       .  S
C737        H739   1.086       .  S
C737        C738   1.343       .  D
C738        H740   1.087       .  S
C741        C742   1.205       .  T
C742        C743   1.411       .  S
C743        C744   1.205       .  T
C745        H747   1.086       .  S
C745        C746   1.345       .  D
C746        H748   1.087       .  S
C749        H751   1.088       .  S
C749        C750   1.348       .  D
C750        H752   1.086       .  S
C753        C754   1.204       .  T
C754        C755   1.410       .  S
C755        C756   1.205       .  T
C757        H759   1.086       .  S
C757        C758   1.339       .  D
C758        H760   1.083       .  S
C761        C762   1.204       .  T
C762        C763   1.409       .  S
C763        C764   1.204       .  T
C765        C766   1.207       .  T
C766        C767   1.414       .  S
C767        C768   1.207       .  T
C769        H771   1.086       .  S
C769        C770   1.348       .  D
C770        H772   1.084   1_455  S
C773        C774   1.204       .  T
C774        C775   1.409       .  S
C775        C776   1.204       .  T
C777        H779   1.086       .  S
C777        C778   1.352       .  D
C778        H780   1.084       .  S
C781        H783   1.087       .  S
C781        C782   1.344       .  D
C782        H784   1.084       .  S
C785        C786   1.206       .  T
C786        C787   1.412       .  S
C787        C788   1.206       .  T
C789        C790   1.208       .  T
C790        C791   1.416       .  S
C791        C792   1.208       .  T
C793        H795   1.082       .  S
C793        C794   1.349       .  D
C794        H796   1.085       .  S
C797        C798   1.205       .  T
C798        C799   1.410       .  S
C799        C800   1.205       .  T
C801        C802   1.206       .  T
C802        C803   1.412       .  S
C803        C804   1.205       .  T
C805        H807   1.084       .  S
C805        C806   1.341   1_565  D
C806        H808   1.088       .  S
C809        C810   1.204       .  T
C810        C811   1.409       .  S
C811        C812   1.204       .  T
C813        C814   1.204       .  T
C814        C815   1.408       .  S
C815        C816   1.204       .  T
C817        H819   1.087       .  S
C817        C818   1.345       .  D
C818        H820   1.086       .  S
C821        C822   1.208       .  T
C823        H825   1.087       .  S
C823        C824   1.349       .  D
C824        H826   1.086       .  S
C827        C828   1.209       .  T
C829        C830   1.208       .  T
C831        H833   1.084       .  S
C831        C832   1.349   1_455  D
C832        H834   1.086       .  S
C835        C836   1.208       .  T
C837        C838   1.210       .  T
C839        C840   1.205       .  T
C841        H843   1.083   1_545  S
C841        C842   1.348       .  D
C842        H844   1.086       .  S
C845        C846   1.206       .  T
C847        C848   1.206       .  T
C849        C850   1.208       .  T
C851        C852   1.206       .  T
C853        C854   1.206       .  T
C855        C856   1.211       .  T
C857        H859   1.087       .  S
C857        C858   1.350       .  D
C858        H860   1.087       .  S
C861        C862   1.210       .  T
C863        C864   1.207       .  T
C865        H867   1.087       .  S
C865        C866   1.346       .  D
C866        H868   1.086   1_545  S
C869        C870   1.207       .  T
C871        C872   1.211       .  T
C873        C874   1.208       .  T
C875        C876   1.211       .  T
C877        H879   1.087       .  S
C877        C878   1.348       .  D
C878        H880   1.086       .  S
C881        H883   1.087       .  S
C881        C882   1.345       .  D
C882        H884   1.086       .  S
C885        H887   1.084   1_545  S
C885        C886   1.347       .  D
C886        H888   1.086       .  S
C889        C890   1.209       .  T
C890        C891   1.417       .  S
C891        C892   1.209   1_556  T
C893        H895   1.087       .  S
C893        C894   1.347       .  D
C894        H896   1.086       .  S
C897        C898   1.202       .  T
C898        C899   1.406       .  S
C899        C900   1.202   1_556  T
C901        H903   1.086   1_455  S
C901        C902   1.347       .  D
C902        H904   1.084       .  S
C905        C906   1.203       .  T
C906        C907   1.407       .  S
C907        C908   1.203       .  T
C909        C910   1.206       .  T
C910        C911   1.412       .  S
C911        C912   1.206       .  T
C913        H915   1.085       .  S
C913        C914   1.343   1_455  D
C914        H916   1.088       .  S
C917        C918   1.202       .  T
C918        C919   1.406       .  S
C919        C920   1.202       .  T
C921        C922   1.206       .  T
C922        C923   1.411       .  S
C923        C924   1.205       .  T
C925        H927   1.082       .  S
C925        C926   1.349       .  D
C926        H928   1.086       .  S
C929        H931   1.087       .  S
C929        C930   1.345       .  D
C930        H932   1.086       .  S
C933        C934   1.208       .  T
C935        H937   1.083       .  S
C935        C936   1.347       .  D
C936        H938   1.086       .  S
C939        C940   1.204       .  T
C941        H943   1.084       .  S
C941        C942   1.344       .  D
C942        H944   1.083       .  S
C945        C946   1.204       .  T
C947        H949   1.086       .  S
C947        C948   1.346       .  D
C948        H950   1.085   1_565  S
C951        H953   1.083   1_565  S
C951        C952   1.347       .  D
C952        H954   1.084       .  S
C955        C956   1.208       .  T
C957        C958   1.208       .  T
C959        C960   1.203       .  T
C961        H963   1.084   1_455  S
C961        C962   1.348       .  D
C962        H964   1.086       .  S
C965        C966   1.206       .  T
C967        H969   1.086       .  S
C967        C968   1.348       .  D
C968        H970   1.087       .  S
C971        C972   1.207       .  T
C973        C974   1.206       .  T
C975        C976   1.208       .  T
C977        H979   1.086       .  S
C977        C978   1.344       .  D
C978        H980   1.087       .  S
C981        C982   1.208       .  T
C983        C984   1.204       .  T
C985        H987   1.087       .  S
C985        C986   1.345       .  D
C986        H988   1.086       .  S
C989        C990   1.211       .  T
C991        C992   1.209       .  T
C993        C994   1.205       .  T
C995        H997   1.087       .  S
C995        C996   1.348       .  D
C996        H998   1.088       .  S
C999       C1000   1.205       .  T
C1001      H1003   1.087       .  S
C1001      C1002   1.344       .  D
C1002      H1004   1.085       .  S
C1005      C1006   1.205       .  T
C1007      C1008   1.206       .  T
