geometry optimzed in LAMMPS
_audit_creation_date              2020-11-30 
_audit_creation_method            'lammps2cif' 
_symmetry_space_group_name_H-M    'P1' 
_symmetry_Int_Tables_number       1 
_symmetry_cell_setting            triclinic 
loop_ 
_symmetry_equiv_pos_as_xyz 
  x,y,z 
_cell_length_a                    41.0208203 
_cell_length_b                    23.510510520701576 
_cell_length_c                    45.41120181143865 
_cell_angle_alpha                 90.46962141452995 
_cell_angle_beta                  90.1799648065261 
_cell_angle_gamma                 90.32921908745128 
loop_ 
_atom_site_label 
_atom_site_type_symbol 
_atom_site_fract_x 
_atom_site_fract_y 
_atom_site_fract_z 
_atom_site_charge 
C1          C  0.81068995  0.44753881  0.11046611     0.85600
C2          C  0.78646372  0.47717111  0.08962123    -0.54700
C3          C  0.76748656  0.51735005  0.10293485     0.08500
C4          C  0.77443567  0.52450552  0.13591479     0.19500
C5          C  0.83034867  0.49590947  0.12502238    -0.55400
C6          C  0.81148122  0.53647661  0.13832397     0.08600
C7          C  0.78843650  0.42452709  0.13485813    -0.54900
C8          C  0.76929449  0.46430577  0.14813209     0.09200
H9          H  0.78332315  0.46520491  0.06662369     0.13700
H10         H  0.75895752  0.55684538  0.14685315    -0.00600
H11         H  0.85678200  0.49819131  0.12438728     0.14000
H12         H  0.78453377  0.37968347  0.13870096     0.13800
C13         C  0.81479515  0.56292735  0.36394746     0.85600
C14         C  0.79124063  0.58640929  0.38776917    -0.54700
C15         C  0.77020276  0.54666148  0.39905786     0.08500
C16         C  0.77588409  0.48686210  0.38656677     0.19500
C17         C  0.83278774  0.51375907  0.37889046    -0.55400
C18         C  0.81247403  0.47412512  0.39100217     0.08600
C19         C  0.79153272  0.53397079  0.34154272    -0.54900
C20         C  0.77112221  0.49456248  0.35349989     0.09200
H21         H  0.78906067  0.63093494  0.39346936     0.13700
H22         H  0.75948612  0.45359058  0.39545703    -0.00600
H23         H  0.85916181  0.51145824  0.38043546     0.14000
H24         H  0.78986719  0.54638237  0.31858924     0.13800
O25         O  0.90814868  0.83422681  0.20888502    -0.82700
C26         C  0.80591257  0.88870152  0.28887686     0.96600
O27         O  0.82058880  0.92234504  0.27175556    -0.71800
O28         O  0.88440419  0.92173868  0.27871149    -0.75400
Al29       Al  0.85676261  0.91313262  0.24531680     1.49000
C30         C  0.91071621  0.89649910  0.28430511     0.91900
O31         O  0.88881857  0.75990437  0.28131089    -0.81600
O32         O  0.82664857  0.75978379  0.21599174    -0.75200
Al33       Al  0.89566752  0.79970996  0.24520598     1.90100
O34         O  0.83766180  0.73803860  0.27367754    -0.74300
O35         O  0.79406596  0.85028524  0.23036109    -0.74100
O36         O  0.81124030  0.83591677  0.28762193    -0.79800
O37         O  0.82794709  0.91264902  0.21182664    -0.78000
O38         O  0.85793400  0.83731730  0.24725705    -1.14100
O39         O  0.89221815  0.92130220  0.21815575    -0.73300
C40         C  0.90795072  0.88633855  0.20261693     0.97400
C41         C  0.86385555  0.73115694  0.28751317     0.93800
Al42       Al  0.82077794  0.79911761  0.25149663     1.55600
O43         O  0.91984302  0.85424191  0.26898289    -0.77900
C44         C  0.79976383  0.89064637  0.21305960     0.98000
C45         C  0.85072199  0.72957802  0.20897999     0.92900
O46         O  0.87822858  0.73690272  0.22145149    -0.83200
O47         O  0.90798875  0.16598927  0.02400669    -0.82700
C48         C  0.79305071  0.11205690  0.45993953     0.96600
O49         O  0.81242809  0.07794500  0.47214913    -0.71800
O50         O  0.87397331  0.08086015  0.45830390    -0.75400
Al51       Al  0.85124506  0.08564697  0.99457781     1.49000
C52         C  0.89864634  0.10800611  0.44981202     0.91900
O53         O  0.87201274  0.24675209  0.45810093    -0.81600
O54         O  0.82789346  0.23431143  0.03461167    -0.75200
Al55       Al  0.88783239  0.20279924  0.49116022     1.90100
O56         O  0.82394232  0.26171081  0.47697741    -0.74300
O57         O  0.79260553  0.14474277  0.02369295    -0.74100
O58         O  0.79444819  0.16483519  0.46536881    -0.79800
O59         O  0.82797941  0.07735021  0.03083765    -0.78000
O60         O  0.85085292  0.16198121  0.99497548    -1.14100
O61         O  0.88988480  0.07864573  0.01741905    -0.73300
C62         C  0.90778395  0.11403878  0.03083540     0.97400
C63         C  0.84603853  0.27550228  0.45930644     0.93800
Al64       Al  0.81320384  0.19820090  0.99968324     1.55600
O65         O  0.90787745  0.15270859  0.46299804    -0.77900
C66         C  0.80144002  0.10113337  0.03704764     0.98000
C67         C  0.85245819  0.26662811  0.03635082     0.92900
O68         O  0.87572801  0.26226302  0.01833681    -0.83200
C69         C  0.00246263  0.95275587  0.39678192     0.85600
C70         C  0.97851937  0.99050807  0.41338280    -0.54700
C71         C  0.96010166  0.02407121  0.39578623     0.08500
C72         C  0.96746426  0.01694785  0.36252922     0.19500
C73         C  0.98150975  0.91887248  0.37435562    -0.55400
C74         C  0.96337913  0.95283531  0.35618759     0.08600
C75         C  0.02277501  0.99344923  0.37789779    -0.54900
C76         C  0.00453061  0.02638575  0.35959260     0.09200
H77         H  0.97615237  0.99045500  0.43723038     0.13700
H78         H  0.95262161  0.04438411  0.34793109    -0.00600
H79         H  0.98205275  0.87285011  0.37223147     0.14000
H80         H  0.04926119  0.99301471  0.37738763     0.13800
O81         O  0.06012975  0.81971882  0.03514758    -0.82700
C82         C  0.16682875  0.89077554  0.46383964     0.96600
O83         O  0.14713489  0.92147250  0.47800655    -0.71800
O84         O  0.08466405  0.90863972  0.46691406    -0.75400
Al85       Al  0.11004491  0.90677487  0.00190943     1.49000
C86         C  0.05981115  0.87956494  0.46028967     0.91900
O87         O  0.09029466  0.74527963  0.46457600    -0.81600
O88         O  0.14423427  0.75623416  0.03507113    -0.75200
Al89       Al  0.07740745  0.78632071  0.99983200     1.90100
O90         O  0.14162356  0.73721830  0.47677890    -0.74300
O91         O  0.17301136  0.85307676  0.02566000    -0.74100
O92         O  0.16648192  0.83749782  0.46677681    -0.79800
O93         O  0.13574103  0.91589971  0.03677674    -0.78000
O94         O  0.11335189  0.83065229  0.00092327    -1.14100
O95         O  0.07266434  0.90894698  0.02682083    -0.73300
C96         C  0.05797599  0.87180935  0.04168916     0.97400
C97         C  0.11751295  0.72077008  0.46183300     0.93800
Al98       Al  0.15270211  0.79889310  0.00102769     1.55600
O99         O  0.05249569  0.83537815  0.47452684    -0.77900
C100        C  0.16383606  0.89548118  0.04032694     0.98000
C101        C  0.12111744  0.72136406  0.03822317     0.92900
O102        O  0.09461720  0.72716258  0.02436133    -0.83200
O103        O  0.04497045  0.15187014  0.21327291    -0.82700
C104        C  0.15672624  0.11841967  0.28546037     0.96600
O105        O  0.14073640  0.08118088  0.27124956    -0.71800
O106        O  0.07806707  0.07416513  0.28241553    -0.75400
Al107      Al  0.10249664  0.08251556  0.24720073     1.49000
C108        C  0.05087550  0.09554955  0.28872729     0.91900
O109        O  0.06822194  0.23348347  0.28391714    -0.81600
O110        O  0.12065329  0.23732715  0.21189439    -0.75200
Al111      Al  0.05880279  0.19064039  0.24851201     1.90100
O112        O  0.11684607  0.26204126  0.27051090    -0.74300
O113        O  0.15921914  0.15425608  0.22329175    -0.74100
O114        O  0.15106100  0.17068961  0.28197495    -0.79800
O115        O  0.12835854  0.08082951  0.21221115    -0.78000
O116        O  0.09830604  0.15830020  0.24758000    -1.14100
O117        O  0.06548316  0.06764815  0.22231679    -0.73300
C118        C  0.04760788  0.09959930  0.20708283     0.97400
C119        C  0.09250177  0.26626652  0.28709616     0.93800
Al120      Al  0.13371275  0.20229066  0.24696240     1.55600
O121        O  0.03902215  0.13511682  0.27357855    -0.77900
C122        C  0.15394284  0.10991921  0.20844973     0.98000
C123        C  0.09453427  0.26403801  0.20808209     0.92900
O124        O  0.06984444  0.25451867  0.22388417    -0.83200
C125        C  0.14718658  0.43712518  0.36163401     0.85600
C126        C  0.16996491  0.41414425  0.38601463    -0.54700
C127        C  0.19148929  0.45349357  0.39742045     0.08500
C128        C  0.18649929  0.51313823  0.38467916     0.19500
C129        C  0.12949456  0.48754525  0.37608825    -0.55400
C130        C  0.14999401  0.52695173  0.38856048     0.08600
C131        C  0.17126125  0.46409756  0.33957229    -0.54900
C132        C  0.19161057  0.50400140  0.35172547     0.09200
H133        H  0.17104562  0.36995915  0.39214071     0.13700
H134        H  0.20308878  0.54623457  0.39376484    -0.00600
H135        H  0.10313696  0.49031027  0.37751767     0.14000
H136        H  0.17289629  0.45119713  0.31660757     0.13800
C137        C  0.14478764  0.43753593  0.13676904     0.85600
C138        C  0.16587451  0.47091984  0.15926950    -0.54700
C139        C  0.18723580  0.50823530  0.14680874     0.08500
C140        C  0.18592512  0.50873086  0.11325211     0.19500
C141        C  0.12850259  0.48310269  0.11778497    -0.55400
C142        C  0.15004982  0.52049920  0.10536165     0.08600
C143        C  0.17058909  0.40948194  0.11674023    -0.54900
C144        C  0.19237451  0.44650803  0.10455533     0.09200
H145        H  0.16543362  0.46342298  0.18283568     0.13700
H146        H  0.20331636  0.53967313  0.10381431    -0.00600
H147        H  0.10231465  0.48534591  0.11454923     0.14000
H148        H  0.17382055  0.36391517  0.11510939     0.13800
C149        C  0.95977161  0.03325553  0.09527037     0.85600
C150        C  0.93810098  0.99566183  0.11487708    -0.54700
C151        C  0.95535357  0.96127765  0.13342308     0.08500
C152        C  0.99268867  0.96712623  0.13020653     0.19500
C153        C  0.98196678  0.06584574  0.11691293    -0.55400
C154        C  0.99892214  0.03141559  0.13554761     0.08600
C155        C  0.98201666  0.99201406  0.07903993    -0.54900
C156        C  0.99923938  0.95714192  0.09690182     0.09200
H157        H  0.91166030  0.99792542  0.11500405     0.13700
H158        H  0.00675288  0.93907947  0.14510407    -0.00600
H159        H  0.98290087  0.11197517  0.11836828     0.14000
H160        H  0.98398643  0.99043548  0.05516352     0.13800
O161        O  0.39996701  0.68264515  0.28228085    -0.82700
C162        C  0.29239030  0.61493867  0.21078430     0.96600
O163        O  0.31176262  0.58355054  0.22481100    -0.71800
O164        O  0.37369522  0.59579612  0.21293575    -0.75400
Al165      Al  0.34947737  0.59673453  0.24836683     1.49000
C166        C  0.39850668  0.62473440  0.20650178     0.91900
O167        O  0.36841207  0.75827679  0.21359310    -0.81600
O168        O  0.31627664  0.74290906  0.28522480    -0.75200
Al169      Al  0.38198861  0.71688811  0.24786643     1.90100
O170        O  0.31779325  0.76853786  0.22737261    -0.74300
O171        O  0.28653154  0.64798747  0.27295029    -0.74100
O172        O  0.29306416  0.66823869  0.21428547    -0.79800
O173        O  0.32486188  0.58710164  0.28363236    -0.78000
O174        O  0.34622733  0.67257128  0.24862163    -1.14100
O175        O  0.38765368  0.59354921  0.27252477    -0.73300
C176        C  0.40244159  0.63043403  0.28788181     0.97400
C177        C  0.34159169  0.78417246  0.21197784     0.93800
Al178      Al  0.30695596  0.70423227  0.24979645     1.55600
O179        O  0.40632539  0.66848788  0.22135951    -0.77900
C180        C  0.29655788  0.60639207  0.28754663     0.98000
C181        C  0.33927411  0.77789764  0.28921240     0.92900
O182        O  0.36491974  0.77498025  0.27382615    -0.83200
O183        O  0.41660206  0.34950019  0.46620796    -0.82700
C184        C  0.30608007  0.37575130  0.03977286     0.96600
O185        O  0.32136562  0.41495356  0.02667543    -0.71800
O186        O  0.38372205  0.42604852  0.03619968    -0.75400
Al187      Al  0.35865764  0.41687065  0.50146545     1.49000
C188        C  0.41137008  0.40645418  0.04200553     0.91900
O189        O  0.39500968  0.26814685  0.03613256    -0.81600
O190        O  0.34277499  0.26427998  0.46286529    -0.75200
Al191      Al  0.40381510  0.31061423  0.00106833     1.90100
O192        O  0.34766758  0.23545244  0.02088258    -0.74300
O193        O  0.30233743  0.34388448  0.47654139    -0.74100
O194        O  0.31184273  0.32403159  0.03437892    -0.79800
O195        O  0.33177716  0.41921289  0.46708770    -0.78000
O196        O  0.36392101  0.34146782  0.50050041    -1.14100
O197        O  0.39477725  0.43294957  0.47586034    -0.73300
C198        C  0.41290490  0.40145855  0.46031557     0.97400
C199        C  0.37159595  0.23335806  0.03825451     0.93800
Al200      Al  0.32929325  0.29581100  0.49877207     1.55600
O201        O  0.42350330  0.36719714  0.02650321    -0.77900
C202        C  0.30647439  0.38956376  0.46293527     0.98000
C203        C  0.36872644  0.23696486  0.45930024     0.92900
O204        O  0.39316320  0.24579775  0.47583242    -0.83200
C205        C  0.31489121  0.06411323  0.38800729     0.85600
C206        C  0.29184318  0.03714946  0.41091887    -0.54700
C207        C  0.27051791  0.99831150  0.39930025     0.08500
C208        C  0.27339474  0.99057864  0.36600977     0.19500
C209        C  0.33102172  0.01368202  0.37223911    -0.55400
C210        C  0.30937972  0.97495921  0.36057771     0.08600
C211        C  0.29115261  0.08908595  0.36510505    -0.54900
C212        C  0.26899113  0.05099415  0.35400248     0.09200
H213        H  0.29182196  0.04866095  0.43413071     0.13700
H214        H  0.25529605  0.95978777  0.35712988    -0.00600
H215        H  0.35727688  0.00885346  0.37097077     0.14000
H216        H  0.29007584  0.13355429  0.35944442     0.13800
C217        C  0.31605476  0.06522393  0.11103549     0.85600
C218        C  0.29175800  0.08979012  0.13391403    -0.54700
C219        C  0.27034408  0.05045906  0.14508859     0.08500
C220        C  0.27650096  0.99014057  0.13344808     0.19500
C221        C  0.33350179  0.01666904  0.12702881    -0.55400
C222        C  0.31277462  0.97781518  0.13913968     0.08600
C223        C  0.29325375  0.03574538  0.08833474    -0.54900
C224        C  0.27276084  0.99639532  0.10027850     0.09200
H225        H  0.28956565  0.13460545  0.13895617     0.13700
H226        H  0.25978115  0.95726253  0.14217684    -0.00600
H227        H  0.35980276  0.01460872  0.12952286     0.14000
H228        H  0.29211201  0.04726444  0.06524237     0.13800
C229        C  0.45694905  0.55411097  0.35214742     0.85600
C230        C  0.43661083  0.51516954  0.37218296    -0.54700
C231        C  0.45511959  0.48184252  0.39022963     0.08500
C232        C  0.49212498  0.48980580  0.38616864     0.19500
C233        C  0.47911362  0.58791377  0.37341276    -0.55400
C234        C  0.49725285  0.55424908  0.39156767     0.08600
C235        C  0.47958435  0.51423974  0.33533099    -0.54900
C236        C  0.49792899  0.48028406  0.35278425     0.09200
H237        H  0.41015213  0.51590750  0.37301159     0.13700
H238        H  0.50709142  0.46244442  0.40069522    -0.00600
H239        H  0.47911300  0.63403173  0.37505503     0.14000
H240        H  0.48078619  0.51257230  0.31141476     0.13800
C241        C  0.64543797  0.93948436  0.38500458     0.85600
C242        C  0.66789222  0.97064327  0.40732501    -0.54700
C243        C  0.68718586  0.01136697  0.39517012     0.08500
C244        C  0.68316800  0.01702296  0.36201845     0.19500
C245        C  0.62668501  0.98678687  0.36931101    -0.54200
C246        C  0.64644228  0.02768331  0.35742125     0.08600
C247        C  0.66949955  0.91656501  0.36178881    -0.54900
C248        C  0.68990009  0.95672136  0.35045213     0.09200
H249        H  0.66966336  0.95944218  0.43043986     0.13700
H250        H  0.69952491  0.04981220  0.35251454    -0.00600
H251        H  0.60025936  0.98894435  0.36880280     0.14000
H252        H  0.67294260  0.87208037  0.35659664     0.13800
O253        O  0.55535342  0.33519951  0.29347066    -0.82700
C254        C  0.65998537  0.38363389  0.21534924     0.96600
O255        O  0.64423663  0.41889387  0.23077623    -0.71800
O256        O  0.58133832  0.41654480  0.22245918    -0.75400
Al257      Al  0.60751125  0.41180038  0.25649942     1.49000
C258        C  0.55457765  0.39202774  0.21741026     0.91900
O259        O  0.57612818  0.25725454  0.22183434    -0.81600
O260        O  0.63520469  0.26103060  0.28995992    -0.75200
Al261      Al  0.56820735  0.29851717  0.25749568     1.90100
O262        O  0.62665684  0.23468219  0.23192698    -0.74300
O263        O  0.66921619  0.35083060  0.27535638    -0.74100
O264        O  0.65549443  0.33079554  0.21807811    -0.79800
O265        O  0.63488729  0.41563322  0.29059879    -0.78000
O266        O  0.60625601  0.33597807  0.25603542    -1.14100
O267        O  0.57126795  0.42170448  0.28250154    -0.73300
C268        C  0.55541019  0.38804061  0.29860222     0.97400
C269        C  0.60096065  0.22731353  0.21714989     0.93800
Al270      Al  0.64332926  0.29744836  0.25408984     1.55600
O271        O  0.54466296  0.35157932  0.23330738    -0.77900
C272        C  0.66296109  0.39393510  0.29088204     0.98000
C273        C  0.61100707  0.22927055  0.29482569     0.92900
O274        O  0.58429965  0.23650052  0.28127877    -0.83200
C275        C  0.64751602  0.05317857  0.14150023     0.85600
C276        C  0.67091844  0.07559382  0.11758888    -0.54700
C277        C  0.69075138  0.03510035  0.10551690     0.08500
C278        C  0.68407226  0.97522030  0.11733681     0.19500
C279        C  0.62806610  0.00541258  0.12640382    -0.55400
C280        C  0.64692265  0.96421627  0.11369753     0.08600
C281        C  0.67054845  0.02272512  0.16318723    -0.54900
C282        C  0.68979075  0.98238059  0.15043436     0.09200
H283        H  0.67410044  0.12009360  0.11245714     0.13700
H284        H  0.69983361  0.94217702  0.10740094    -0.00600
H285        H  0.60161765  0.00384167  0.12653824     0.14000
H286        H  0.67310899  0.03495420  0.18620399     0.13800
O287        O  0.54732273  0.66771835  0.47102378    -0.82700
C288        C  0.65840253  0.61416356  0.04098119     0.96600
O289        O  0.63953425  0.58060783  0.02721050    -0.71800
O290        O  0.57684315  0.58282416  0.03744687    -0.75400
Al291      Al  0.60223939  0.58856066  0.50268612     1.49000
C292        C  0.55188969  0.60988424  0.04520849     0.91900
O293        O  0.57767523  0.74767068  0.03998971    -0.81600
O294        O  0.62848901  0.74037021  0.46784018    -0.75200
Al295      Al  0.56487616  0.70452578  0.00546034     1.90100
O296        O  0.62802161  0.76372248  0.02658594    -0.74300
O297        O  0.66257356  0.65128294  0.47847554    -0.74100
O298        O  0.65677987  0.66723521  0.03713395    -0.79800
O299        O  0.62853743  0.58232926  0.46787244    -0.78000
O300        O  0.60240041  0.66496914  0.50368745    -1.14100
O301        O  0.56523463  0.58085167  0.47727127    -0.73300
C302        C  0.54799721  0.61595905  0.46346078     0.97400
C303        C  0.60442207  0.77393594  0.04321962     0.93800
Al304      Al  0.64033697  0.70242448  0.50259210     1.55600
O305        O  0.54302867  0.65378408  0.03171348    -0.77900
C306        C  0.65526522  0.60781355  0.46380454     0.98000
C307        C  0.60327417  0.76948455  0.46357437     0.92900
O308        O  0.57858449  0.76443860  0.47983378    -0.83200
C309        C  0.50105152  0.46896653  0.15324539     0.85600
C310        C  0.47833481  0.50877408  0.16987003    -0.54700
C311        C  0.46040322  0.54300979  0.15227911     0.08500
C312        C  0.46693817  0.53422469  0.11895280     0.19500
C313        C  0.47915098  0.43573487  0.13156265    -0.55400
C314        C  0.46152050  0.47005209  0.11335249     0.08600
C315        C  0.52200111  0.50763202  0.13375711    -0.54900
C316        C  0.50413575  0.54133219  0.11546951     0.09200
H317        H  0.47633035  0.50947385  0.19374876     0.13700
H318        H  0.45237653  0.56195577  0.10428179    -0.00600
H319        H  0.47882338  0.38962489  0.12981391     0.14000
H320        H  0.54845538  0.50577759  0.13309954     0.13800
C321        C  0.51913575  0.57099654  0.09113745    -0.14200
C322        C  0.53329512  0.59031904  0.07009745    -0.15700
C323        C  0.60278030  0.91452710  0.08367276    -0.14300
C324        C  0.63295278  0.91280356  0.09869621     0.07900
C325        C  0.65038269  0.86162716  0.09865407    -0.14300
C326        C  0.63919133  0.81475093  0.08246352    -0.14300
C327        C  0.61005872  0.81739876  0.06623737     0.07900
C328        C  0.59139147  0.86708238  0.06757861    -0.14300
H329        H  0.58875453  0.95335663  0.08306808     0.11900
H330        H  0.67306674  0.85786296  0.11066048     0.11900
H331        H  0.65415245  0.77691325  0.08147612     0.11900
H332        H  0.56932047  0.87055449  0.05459527     0.11900
C333        C  0.51988927  0.43381667  0.17369848    -0.14200
C334        C  0.53503363  0.41169634  0.19329734    -0.15700
C335        C  0.61189213  0.19667579  0.16609065    -0.14300
C336        C  0.60124932  0.18294227  0.19437727     0.07900
C337        C  0.59948308  0.12578751  0.20266999    -0.14300
C338        C  0.61119536  0.08324981  0.18385272    -0.14300
C339        C  0.62632816  0.09751696  0.15705946     0.07900
C340        C  0.62395545  0.15429743  0.14738904    -0.14300
H341        H  0.61329342  0.24072623  0.15935407     0.11900
H342        H  0.59146321  0.11453885  0.22458771     0.11900
H343        H  0.61130166  0.03973410  0.19150165     0.11900
H344        H  0.63261016  0.16728047  0.12605850     0.11900
C345        C  0.60691151  0.08008828  0.32501419    -0.14300
C346        C  0.63413563  0.08052604  0.34387971     0.07900
C347        C  0.65074732  0.13193835  0.34913058    -0.14300
C348        C  0.64157258  0.18131326  0.33468563    -0.14300
C349        C  0.61557973  0.18045435  0.31455263     0.07900
C350        C  0.59771354  0.12979161  0.31037268    -0.14300
H351        H  0.59376349  0.04088002  0.32053806     0.11900
H352        H  0.67135040  0.13391775  0.36396667     0.11900
H353        H  0.65570524  0.21980995  0.33840541     0.11900
H354        H  0.57788836  0.12781112  0.29458376     0.11900
C355        C  0.62452918  0.83724507  0.39220146    -0.14300
C356        C  0.62422390  0.89527071  0.40035621     0.07900
C357        C  0.60790555  0.91071536  0.42648858    -0.14300
C358        C  0.59798578  0.86902112  0.44639770    -0.14300
C359        C  0.60379926  0.81158022  0.44006907     0.07900
C360        C  0.61526323  0.79579560  0.41227061    -0.14300
H361        H  0.63355668  0.82269477  0.37120899     0.11900
H362        H  0.60600837  0.95506356  0.43291971     0.11900
H363        H  0.58869670  0.88180351  0.46773822     0.11900
H364        H  0.61875605  0.75131331  0.40672461     0.11900
C365        C  0.53645463  0.41174933  0.32250851    -0.14200
C366        C  0.51990525  0.43946404  0.33936163    -0.15700
C367        C  0.52954271  0.59605452  0.43811043    -0.14200
C368        C  0.51534390  0.57729606  0.41660638    -0.15700
C369        C  0.42912006  0.42568364  0.43511212    -0.14200
C370        C  0.44119507  0.44908080  0.41408739    -0.15700
C371        C  0.44330093  0.44786726  0.08837139    -0.14200
C372        C  0.42911517  0.42904719  0.06698612    -0.15700
C373        C  0.34363816  0.16156628  0.39102714    -0.14300
C374        C  0.33909694  0.10612736  0.40198953     0.07900
C375        C  0.35483419  0.09204070  0.42859144    -0.14300
C376        C  0.36902234  0.13460275  0.44626446    -0.14300
C377        C  0.36827731  0.19138312  0.43716845     0.07900
C378        C  0.35742987  0.20399183  0.40876593    -0.14300
H379        H  0.33511639  0.17378596  0.36952208     0.11900
H380        H  0.35324071  0.04921407  0.43708681     0.11900
H381        H  0.37725213  0.12410803  0.46825198     0.11900
H382        H  0.35717511  0.24761219  0.40124352     0.11900
C383        C  0.35553685  0.09142626  0.07044289    -0.14300
C384        C  0.33946667  0.10751789  0.09657267     0.07900
C385        C  0.34366980  0.16398114  0.10680525    -0.14300
C386        C  0.35880765  0.20477610  0.08910048    -0.14300
C387        C  0.37030736  0.18978313  0.06113129     0.07900
C388        C  0.37009012  0.13240980  0.05254921    -0.14300
H389        H  0.35407207  0.04795405  0.06244960     0.11900
H390        H  0.33410739  0.17795786  0.12773058     0.11900
H391        H  0.35869182  0.24897038  0.09605943     0.11900
H392        H  0.37860444  0.12008877  0.03086011     0.11900
C393        C  0.41901507  0.60518958  0.18272140    -0.14200
C394        C  0.43696011  0.58112387  0.16560789    -0.15700
C395        C  0.42207091  0.61154173  0.31232947    -0.14200
C396        C  0.43750871  0.58909988  0.33178167    -0.15700
C397        C  0.35579630  0.87226380  0.31105257    -0.14300
C398        C  0.33462829  0.82505719  0.31047590     0.07900
C399        C  0.30657075  0.82609680  0.32806188    -0.14300
C400        C  0.29900681  0.87408146  0.34479392    -0.14300
C401        C  0.31930147  0.92238553  0.34453332     0.07900
C402        C  0.34821143  0.92050872  0.32794387    -0.14300
H403        H  0.37747194  0.87290134  0.29750589     0.11900
H404        H  0.28976865  0.79038272  0.32821388     0.11900
H405        H  0.27692329  0.87312468  0.35752991     0.11900
H406        H  0.36428737  0.95706865  0.32697296     0.11900
C407        C  0.31077771  0.87105378  0.20015512    -0.14300
C408        C  0.33699108  0.83503526  0.19346728     0.07900
C409        C  0.35739707  0.84877996  0.16969882    -0.14300
C410        C  0.35043483  0.89633196  0.15211964    -0.14300
C411        C  0.32314728  0.93045670  0.15833704     0.07900
C412        C  0.30416280  0.91808197  0.18300484    -0.14300
H413        H  0.29510620  0.86294071  0.21882781     0.11900
H414        H  0.37801250  0.82213376  0.16430236     0.11900
H415        H  0.36564943  0.90536572  0.13327329     0.11900
H416        H  0.28395880  0.94492487  0.18918516     0.11900
C417        C  0.23289624  0.50490858  0.18266300    -0.14300
C418        C  0.21379191  0.53656103  0.16323813     0.07900
C419        C  0.22183870  0.59362073  0.15785562    -0.14300
C420        C  0.24802589  0.61941063  0.17270320    -0.14300
C421        C  0.26693586  0.58780112  0.19246809     0.07900
C422        C  0.25934775  0.53014707  0.19696729    -0.14300
H423        H  0.22762245  0.46041335  0.18645697     0.11900
H424        H  0.20754379  0.61836723  0.14252297     0.11900
H425        H  0.25331231  0.66390429  0.16895212     0.11900
H426        H  0.27332526  0.50473202  0.21224264     0.11900
C427        C  0.22315390  0.37392219  0.07464409    -0.14300
C428        C  0.22233943  0.42719877  0.08899064     0.07900
C429        C  0.25075344  0.46113183  0.08908454    -0.14300
C430        C  0.27859264  0.44354934  0.07399883    -0.14300
C431        C  0.27898419  0.39086890  0.05936364     0.07900
C432        C  0.25131820  0.35566321  0.06036527    -0.14300
H433        H  0.20183247  0.34671350  0.07368073     0.11900
H434        H  0.25182938  0.50128065  0.10080996     0.11900
H435        H  0.29972867  0.47133557  0.07352188     0.11900
H436        H  0.25085513  0.31522494  0.04875285     0.11900
C437        C  0.23420387  0.38215065  0.41212996    -0.14300
C438        C  0.22155710  0.43764563  0.41421804     0.07900
C439        C  0.23936819  0.47861219  0.43060843    -0.14300
C440        C  0.26850761  0.46415267  0.44481375    -0.14300
C441        C  0.28005257  0.40826356  0.44342425     0.07900
C442        C  0.26275327  0.36754848  0.42688465    -0.14300
H443        H  0.22244886  0.34952159  0.39889935     0.11900
H444        H  0.23069886  0.52159476  0.43314231     0.11900
H445        H  0.28111358  0.49588343  0.45811431     0.11900
H446        H  0.27120125  0.32403443  0.42566676     0.11900
C447        C  0.22594661  0.58812134  0.33913462    -0.14300
C448        C  0.21955799  0.52972058  0.33615890     0.07900
C449        C  0.24104711  0.49564414  0.31978267    -0.14300
C450        C  0.26800253  0.52004603  0.30578652    -0.14300
C451        C  0.27339201  0.57891942  0.30757552     0.07900
C452        C  0.25236160  0.61268719  0.32456285    -0.14300
H453        H  0.20988919  0.61497815  0.35197535     0.11900
H454        H  0.23693689  0.45022346  0.31782011     0.11900
H455        H  0.28358870  0.49351013  0.29230895     0.11900
H456        H  0.25592626  0.65834431  0.32588012     0.11900
C457        C  0.19694267  0.04541628  0.30137762    -0.14300
C458        C  0.18391094  0.10032890  0.30452305     0.07900
C459        C  0.19893283  0.13889451  0.32402679    -0.14300
C460        C  0.22649611  0.12297124  0.34000313    -0.14300
C461        C  0.24007962  0.06841581  0.33640090     0.07900
C462        C  0.22484216  0.02978072  0.31697950    -0.14300
H463        H  0.18616932  0.01497905  0.28612065     0.11900
H464        H  0.18941903  0.18146098  0.32689580     0.11900
H465        H  0.23676845  0.15342230  0.35546197     0.11900
H466        H  0.23474220  0.98777448  0.31332621     0.11900
C467        C  0.22304027  0.02470962  0.17794563    -0.14300
C468        C  0.23957205  0.06543280  0.16081899     0.07900
C469        C  0.22500647  0.11896492  0.15699700    -0.14300
C470        C  0.19570837  0.13207158  0.17098212    -0.14300
C471        C  0.17981419  0.09157141  0.18840270     0.07900
C472        C  0.19334334  0.03749709  0.19137773    -0.14300
H473        H  0.23317173  0.98316060  0.18178618     0.11900
H474        H  0.23601575  0.15098166  0.14320440     0.11900
H475        H  0.18577729  0.17446524  0.16881164     0.11900
H476        H  0.18197575  0.00635392  0.20555119     0.11900
C477        C  0.01687184  0.05444172  0.16067261    -0.14200
C478        C  0.03046980  0.07545653  0.18194332    -0.15700
C479        C  0.10636509  0.40938827  0.17826715    -0.14300
C480        C  0.12101601  0.39583748  0.15106487     0.07900
C481        C  0.11657137  0.34030667  0.13971351    -0.14300
C482        C  0.10434115  0.29725817  0.15755266    -0.14300
C483        C  0.09465370  0.30960087  0.18637264     0.07900
C484        C  0.09354210  0.36632021  0.19597132    -0.14300
H485        H  0.10758135  0.45227997  0.18704963     0.11900
H486        H  0.12454990  0.32878999  0.11780316     0.11900
H487        H  0.10475318  0.25367833  0.14965772     0.11900
H488        H  0.08597189  0.37654651  0.21823378     0.11900
C489        C  0.09444033  0.36763007  0.30184038    -0.14300
C490        C  0.09420725  0.31035695  0.31017579     0.07900
C491        C  0.10575696  0.29593486  0.33815042    -0.14300
C492        C  0.12036724  0.33728133  0.35634275    -0.14300
C493        C  0.12426326  0.39387844  0.34658138     0.07900
C494        C  0.10863432  0.40912912  0.32014354    -0.14300
H495        H  0.08608463  0.37952988  0.28011425     0.11900
H496        H  0.10605518  0.25182649  0.34488865     0.11900
H497        H  0.12965973  0.32344163  0.37729634     0.11900
H498        H  0.11008747  0.45248294  0.31231484     0.11900
C499        C  0.20999407  0.88886709  0.07528539    -0.14300
C500        C  0.18806724  0.92289480  0.05959419     0.07900
C501        C  0.19403670  0.98149112  0.05735742    -0.14300
C502        C  0.22230014  0.00531911  0.06973457    -0.14300
C503        C  0.24456377  0.97089012  0.08482086     0.07900
C504        C  0.23780098  0.91283793  0.08814543    -0.14300
H505        H  0.20604109  0.84336837  0.07681344     0.11900
H506        H  0.17780415  0.00813406  0.04473485     0.11900
H507        H  0.22669066  0.05060252  0.06773370     0.11900
H508        H  0.25439472  0.88590690  0.10021932     0.11900
C509        C  0.22160267  0.00383215  0.43146382    -0.14300
C510        C  0.24440494  0.97073397  0.41627387     0.07900
C511        C  0.24088833  0.91142550  0.41563888    -0.14300
C512        C  0.21501653  0.88528300  0.43028353    -0.14300
C513        C  0.19208666  0.91822270  0.44561610     0.07900
C514        C  0.19557137  0.97783600  0.44593331    -0.14300
H515        H  0.22373829  0.04976951  0.43179410     0.11900
H516        H  0.25849616  0.88528758  0.40435599     0.11900
H517        H  0.21330988  0.83929947  0.43002548     0.11900
H518        H  0.17852997  0.00441411  0.45782581     0.11900
C519        C  0.03818519  0.89074685  0.06616703    -0.14200
C520        C  0.02134382  0.91632563  0.08367633    -0.15700
C521        C  0.14837404  0.63363728  0.45054034    -0.14300
C522        C  0.12263828  0.66998925  0.44288303     0.07900
C523        C  0.10395309  0.65704262  0.41766851    -0.14300
C524        C  0.11209083  0.60971942  0.39987504    -0.14300
C525        C  0.13891415  0.57524133  0.40723544     0.07900
C526        C  0.15632132  0.58719358  0.43306590    -0.14300
H527        H  0.16274834  0.64114977  0.47027440     0.11900
H528        H  0.08386567  0.68405960  0.41137967     0.11900
H529        H  0.09810556  0.60099943  0.38006800     0.11900
H530        H  0.17620665  0.56036291  0.43995750     0.11900
C531        C  0.16206178  0.58952074  0.06532458    -0.14300
C532        C  0.14051010  0.56979768  0.08697426     0.07900
C533        C  0.11127776  0.59960918  0.09186634    -0.14300
C534        C  0.10435671  0.64902278  0.07589913    -0.14300
C535        C  0.12698321  0.66985472  0.05550356     0.07900
C536        C  0.15560596  0.63934736  0.05012149    -0.14300
H537        H  0.18409421  0.56655233  0.06001536     0.11900
H538        H  0.09422682  0.58570238  0.10848981     0.11900
H539        H  0.08189380  0.67171569  0.07999504     0.11900
H540        H  0.17283117  0.65371406  0.03369574     0.11900
C541        C  0.01927473  0.05566966  0.33504915    -0.14200
C542        C  0.03309889  0.07476296  0.31379508    -0.15700
C543        C  0.02243880  0.91875657  0.41722682    -0.14200
C544        C  0.03916792  0.89812481  0.43638820    -0.15700
C545        C  0.92745191  0.09364324  0.05488551    -0.14200
C546        C  0.94184474  0.06957959  0.07444550    -0.15700
C547        C  0.91772119  0.08544625  0.42573844    -0.14200
C548        C  0.93578343  0.06083817  0.40891809    -0.15700
C549        C  0.74055746  0.12167650  0.43224568    -0.14300
C550        C  0.76729749  0.08841456  0.44072192     0.07900
C551        C  0.76763666  0.03021952  0.43330285    -0.14300
C552        C  0.74132415  0.00537927  0.41859249    -0.14300
C553        C  0.71435186  0.03829029  0.41101498     0.07900
C554        C  0.71420497  0.09664154  0.41737943    -0.14300
H555        H  0.73954622  0.16643644  0.43791417     0.11900
H556        H  0.78794841  0.00349121  0.43944656     0.11900
H557        H  0.74189880  0.96043382  0.41318540     0.11900
H558        H  0.69342846  0.12241871  0.41154870     0.11900
C559        C  0.76372204  0.02533414  0.05404375    -0.14300
C560        C  0.77876154  0.07828475  0.05887245     0.07900
C561        C  0.76591268  0.11553715  0.08000220    -0.14300
C562        C  0.73774973  0.10114410  0.09537069    -0.14300
C563        C  0.72121451  0.04967382  0.08934166     0.07900
C564        C  0.73506038  0.01119278  0.06910748    -0.14300
H565        H  0.77277334  0.99681408  0.03715859     0.11900
H566        H  0.77697316  0.15701907  0.08368545     0.11900
H567        H  0.72886261  0.13085441  0.11172816     0.11900
H568        H  0.72310222  0.97111667  0.06400423     0.11900
C569        C  0.92584683  0.90708705  0.17737222    -0.14200
C570        C  0.93975692  0.92914372  0.15680528    -0.15700
C571        C  0.94519320  0.93134735  0.33085507    -0.14200
C572        C  0.93019769  0.91545632  0.30919638    -0.15700
C573        C  0.76635456  0.87600424  0.32981584    -0.14300
C574        C  0.77934519  0.91018312  0.30757417     0.07900
C575        C  0.76361329  0.96127382  0.30037903    -0.14300
C576        C  0.73455693  0.97656332  0.31428071    -0.14300
C577        C  0.72083139  0.94112007  0.33565394     0.07900
C578        C  0.73758404  0.89155939  0.34389306    -0.14300
H579        H  0.77801724  0.83655026  0.33583593     0.11900
H580        H  0.77288050  0.98807373  0.28295970     0.11900
H581        H  0.72234658  0.01509827  0.30766539     0.11900
H582        H  0.72848062  0.86448681  0.36123876     0.11900
C583        C  0.77626269  0.93899809  0.16873418    -0.14300
C584        C  0.77206593  0.91351755  0.19623708     0.07900
C585        C  0.74055196  0.90992297  0.20834472    -0.14300
C586        C  0.71376513  0.93206635  0.19343441    -0.14300
C587        C  0.71786063  0.95693072  0.16581804     0.07900
C588        C  0.74922987  0.95988133  0.15343133    -0.14300
H589        H  0.80027647  0.94226543  0.15902568     0.11900
H590        H  0.73670865  0.89094828  0.22971518     0.11900
H591        H  0.68983754  0.92963524  0.20338528     0.11900
H592        H  0.75297235  0.97959162  0.13228819     0.11900
C593        C  0.74725624  0.44765148  0.30883845    -0.14300
C594        C  0.74321284  0.46929404  0.33737942     0.07900
C595        C  0.71217435  0.46746457  0.35049230    -0.14300
C596        C  0.68556335  0.44395928  0.33532932    -0.14300
C597        C  0.68994546  0.42076301  0.30717193     0.07900
C598        C  0.72089844  0.42296553  0.29399480    -0.14300
H599        H  0.77086779  0.44894128  0.29828569     0.11900
H600        H  0.70834288  0.48491924  0.37234537     0.11900
H601        H  0.66186531  0.44288394  0.34571033     0.11900
H602        H  0.72460584  0.40595518  0.27198909     0.11900
C603        C  0.72403327  0.52137856  0.43337410    -0.14300
C604        C  0.73965544  0.56142779  0.41517992     0.07900
C605        C  0.72426636  0.61390858  0.41042552    -0.14300
C606        C  0.69501583  0.62687391  0.42447494    -0.14300
C607        C  0.67999869  0.58738210  0.44309110     0.07900
C608        C  0.69440039  0.53417159  0.44710977    -0.14300
H609        H  0.73493777  0.48061261  0.43768139     0.11900
H610        H  0.73463469  0.64521438  0.39581417     0.11900
H611        H  0.68458554  0.66873156  0.42162921     0.11900
H612        H  0.68383020  0.50397668  0.46229079     0.11900
C613        C  0.85308579  0.58987738  0.32258278    -0.14300
C614        C  0.83726612  0.60603845  0.34885536     0.07900
C615        C  0.83975098  0.66351845  0.35791502    -0.14300
C616        C  0.85259911  0.70452765  0.33896231    -0.14300
C617        C  0.86384438  0.68878910  0.31101520     0.07900
C618        C  0.86553837  0.63101476  0.30350823    -0.14300
H619        H  0.85273767  0.54584849  0.31534944     0.11900
H620        H  0.83035062  0.67812359  0.37877180     0.11900
H621        H  0.85112985  0.74908046  0.34510249     0.11900
H622        H  0.87384120  0.61812370  0.28185256     0.11900
C623        C  0.85082309  0.39147893  0.40061500    -0.14300
C624        C  0.82376550  0.42493956  0.40862253     0.07900
C625        C  0.80610518  0.41043687  0.43374204    -0.14300
C626        C  0.81406330  0.36260107  0.44985724    -0.14300
C627        C  0.84016361  0.32733183  0.44154360     0.07900
C628        C  0.85899602  0.34280557  0.41701444    -0.14300
H629        H  0.86498547  0.40202460  0.38132318     0.11900
H630        H  0.78600656  0.43631071  0.44114366     0.11900
H631        H  0.79940400  0.35329978  0.46904118     0.11900
H632        H  0.87941529  0.31688737  0.41023512     0.11900
C633        C  0.73223182  0.60113679  0.09087232    -0.14300
C634        C  0.73885524  0.54283016  0.08830929     0.07900
C635        C  0.71736712  0.50787921  0.07221763    -0.14300
C636        C  0.69031170  0.53098576  0.05821063    -0.14300
C637        C  0.68429192  0.58977470  0.05966962     0.07900
C638        C  0.70533673  0.62465422  0.07643955    -0.14300
H639        H  0.74847296  0.62903160  0.10327557     0.11900
H640        H  0.72152573  0.46253172  0.07046892     0.11900
H641        H  0.67468036  0.50282049  0.04538465     0.11900
H642        H  0.70142048  0.67008031  0.07782734     0.11900
C643        C  0.74388498  0.39730377  0.18401526    -0.14300
C644        C  0.74159543  0.44700226  0.16712541     0.07900
C645        C  0.71172529  0.47609755  0.16620963    -0.14300
C646        C  0.68466792  0.45526176  0.18152292    -0.14300
C647        C  0.68688432  0.40416265  0.19709650     0.07900
C648        C  0.71668997  0.37561278  0.19836263    -0.14300
H649        H  0.76667347  0.37468174  0.18595345     0.11900
H650        H  0.70887398  0.51395454  0.15307236     0.11900
H651        H  0.66194967  0.47842631  0.18087107     0.11900
H652        H  0.71921791  0.33730137  0.21127195     0.11900
C653        C  0.81747242  0.68605504  0.16890689    -0.14300
C654        C  0.84506738  0.68338503  0.18720640     0.07900
C655        C  0.86385248  0.63357364  0.18702775    -0.14300
C656        C  0.85385873  0.58611210  0.17020210    -0.14300
C657        C  0.82493674  0.58792755  0.15342477     0.07900
C658        C  0.80760008  0.63900663  0.15233954    -0.14300
H659        H  0.80269251  0.72404159  0.16826669     0.11900
H660        H  0.88513331  0.63022889  0.20110083     0.11900
H661        H  0.86779112  0.54725414  0.17151370     0.11900
H662        H  0.78569380  0.64254991  0.13905615     0.11900
C663        C  0.84406435  0.41405575  0.06667664    -0.14300
C664        C  0.83116777  0.40250717  0.09472670     0.07900
C665        C  0.83427755  0.34669300  0.10566178    -0.14300
C666        C  0.84361121  0.30222375  0.08710140    -0.14300
C667        C  0.85204964  0.31318488  0.05792448     0.07900
C668        C  0.85424978  0.36957206  0.04830831    -0.14300
H669        H  0.84350081  0.45678493  0.05799067     0.11900
H670        H  0.82811679  0.33608901  0.12805207     0.11900
H671        H  0.84270826  0.25894396  0.09507361     0.11900
H672        H  0.86096658  0.37873002  0.02576633     0.11900
C673        C  0.81070851  0.44750865  0.61047420     0.85600
C674        C  0.78649175  0.47713517  0.58961868    -0.54700
C675        C  0.76750457  0.51731319  0.60292249     0.08500
C676        C  0.77444133  0.52448035  0.63590482     0.19500
C677        C  0.83035996  0.49588612  0.62503380    -0.55400
C678        C  0.81148606  0.53645708  0.63832619     0.08600
C679        C  0.78844431  0.42450395  0.63486045    -0.54900
C680        C  0.76929629  0.46428469  0.64812558     0.09200
H681        H  0.78336667  0.46516589  0.56661995     0.13700
H682        H  0.75895802  0.55681992  0.64683670    -0.00600
H683        H  0.85679350  0.49816820  0.62440788     0.14000
H684        H  0.78453967  0.37966243  0.63870595     0.13800
C685        C  0.81480833  0.56292428  0.86394198     0.85600
C686        C  0.79125636  0.58639670  0.88776799    -0.54700
C687        C  0.77021606  0.54664733  0.89905265     0.08500
C688        C  0.77589838  0.48685169  0.88655530     0.19500
C689        C  0.83280189  0.51375277  0.87887927    -0.55400
C690        C  0.81248947  0.47411590  0.89098897     0.08600
C691        C  0.79154423  0.53397608  0.84153509    -0.54900
C692        C  0.77113399  0.49456270  0.85348909     0.09200
H693        H  0.78908315  0.63091921  0.89347594     0.13700
H694        H  0.75950330  0.45357351  0.89544219    -0.00600
H695        H  0.85917605  0.51145596  0.88042561     0.14000
H696        H  0.78987814  0.54639651  0.81858304     0.13800
O697        O  0.90813873  0.83422892  0.70888083    -0.82700
C698        C  0.80592243  0.88872638  0.78888683     0.96600
O699        O  0.82059387  0.92236109  0.77175860    -0.71800
O700        O  0.88440755  0.92174875  0.77870972    -0.75400
Al701      Al  0.85676285  0.91313787  0.74531858     1.49000
C702        C  0.91072059  0.89651098  0.78430114     0.91900
O703        O  0.88882964  0.75991025  0.78131168    -0.81600
O704        O  0.82663947  0.75977006  0.71601174    -0.75200
Al705      Al  0.89566747  0.79971547  0.74520550     1.90100
O706        O  0.83766713  0.73805893  0.77369858    -0.74300
O707        O  0.79406511  0.85028529  0.73037499    -0.74100
O708        O  0.81124894  0.83594101  0.78763673    -0.79800
O709        O  0.82794382  0.91264475  0.71183205    -0.78000
O710        O  0.85793414  0.83732202  0.74726295    -1.14100
O711        O  0.89221412  0.92130520  0.71815542    -0.73300
C712        C  0.90794073  0.88634055  0.70261308     0.97400
C713        C  0.86386690  0.73117053  0.78752365     0.93800
Al714      Al  0.82077871  0.79912509  0.75151333     1.55600
O715        O  0.91984672  0.85425323  0.76897826    -0.77900
C716        C  0.79976106  0.89064097  0.71306931     0.98000
C717        C  0.85071270  0.72956862  0.70899387     0.92900
O718        O  0.87822368  0.73690445  0.72145591    -0.83200
O719        O  0.90799511  0.16597225  0.52398590    -0.82700
C720        C  0.79305395  0.11207655  0.95994314     0.96600
O721        O  0.81242708  0.07796646  0.97215915    -0.71800
O722        O  0.87396923  0.08089729  0.95830255    -0.75400
Al723      Al  0.85124035  0.08562124  0.49457529     1.49000
C724        C  0.89865064  0.10803202  0.94982029     0.91900
O725        O  0.87203406  0.24677275  0.95811135    -0.81600
O726        O  0.82789684  0.23428627  0.53461354    -0.75200
Al727      Al  0.88784082  0.20281703  0.99117420     1.90100
O728        O  0.82395603  0.26172859  0.97697433    -0.74300
O729        O  0.79260248  0.14472308  0.52369746    -0.74100
O730        O  0.79445981  0.16485761  0.96536227    -0.79800
O731        O  0.82796621  0.07731375  0.53083157    -0.78000
O732        O  0.85084701  0.16195753  0.49497134    -1.14100
O733        O  0.88987439  0.07863079  0.51742409    -0.73300
C734        C  0.90778505  0.11402691  0.53082580     0.97400
C735        C  0.84605904  0.27552224  0.95931041     0.93800
Al736      Al  0.81319844  0.19817807  0.49968657     1.55600
O737        O  0.90789099  0.15271818  0.96301717    -0.77900
C738        C  0.80143042  0.10110399  0.53704618     0.98000
C739        C  0.85246226  0.26660281  0.53634963     0.92900
O740        O  0.87572592  0.26224320  0.51832838    -0.83200
C741        C  0.00245939  0.95278598  0.89677934     0.85600
C742        C  0.97851427  0.99053033  0.91338261    -0.54700
C743        C  0.96009421  0.02409293  0.89578769     0.08500
C744        C  0.96745523  0.01697485  0.86253015     0.19500
C745        C  0.98150855  0.91890120  0.87435237    -0.55400
C746        C  0.96337501  0.95286185  0.85618588     0.08600
C747        C  0.02276795  0.99348674  0.87789682    -0.54900
C748        C  0.00452051  0.02642141  0.85959367     0.09200
H749        H  0.97614985  0.99047622  0.93723039     0.13700
H750        H  0.95261045  0.04441047  0.84793344    -0.00600
H751        H  0.98205611  0.87287940  0.87222575     0.14000
H752        H  0.04925419  0.99305727  0.87738533     0.13800
O753        O  0.06011281  0.81968493  0.53516266    -0.82700
C754        C  0.16684887  0.89079014  0.96381979     0.96600
O755        O  0.14715261  0.92148978  0.97798233    -0.71800
O756        O  0.08468059  0.90865904  0.96689137    -0.75400
Al757      Al  0.11002786  0.90675239  0.50193254     1.49000
C758        C  0.05982384  0.87958986  0.96027266     0.91900
O759        O  0.09030263  0.74529855  0.96456085    -0.81600
O760        O  0.14422224  0.75622816  0.53509174    -0.75200
Al761      Al  0.07739523  0.78629453  0.49984792     1.90100
O762        O  0.14163403  0.73724085  0.97675760    -0.74300
O763        O  0.17299842  0.85306623  0.52567442    -0.74100
O764        O  0.16650175  0.83751371  0.96676088    -0.79800
O765        O  0.13572401  0.91587383  0.53680128    -0.78000
O766        O  0.11333709  0.83063137  0.50094247    -1.14100
O767        O  0.07264795  0.90891540  0.52684272    -0.73300
C768        C  0.05795885  0.87177362  0.54170727     0.97400
C769        C  0.11752068  0.72078777  0.96181661     0.93800
Al770      Al  0.15268834  0.79887801  0.50104599     1.55600
O771        O  0.05250815  0.83540647  0.97451231    -0.77900
C772        C  0.16382226  0.89546425  0.54034569     0.98000
C773        C  0.12110738  0.72135469  0.53824436     0.92900
O774        O  0.09460824  0.72714061  0.52437880    -0.83200
O775        O  0.04496767  0.15186688  0.71326768    -0.82700
C776        C  0.15671699  0.11841800  0.78546732     0.96600
O777        O  0.14072869  0.08118164  0.77125358    -0.71800
O778        O  0.07805758  0.07417697  0.78241892    -0.75400
Al779      Al  0.10248818  0.08251959  0.74720463     1.49000
C780        C  0.05086513  0.09556343  0.78872645     0.91900
O781        O  0.06820437  0.23349531  0.78391062    -0.81600
O782        O  0.12065238  0.23733443  0.71190243    -0.75200
Al783      Al  0.05879366  0.19064297  0.74850690     1.90100
O784        O  0.11683577  0.26204018  0.77051803    -0.74300
O785        O  0.15921203  0.15425934  0.72330103    -0.74100
O786        O  0.15104907  0.17068790  0.78198510    -0.79800
O787        O  0.12834985  0.08083630  0.71221528    -0.78000
O788        O  0.09829764  0.15830421  0.74758251    -1.14100
O789        O  0.06547490  0.06764595  0.72232092    -0.73300
C790        C  0.04760314  0.09959421  0.70708218     0.97400
C791        C  0.09248541  0.26627364  0.78709521     0.93800
Al792      Al  0.13370518  0.20229293  0.74697073     1.55600
O793        O  0.03901159  0.13512362  0.77357303    -0.77900
C794        C  0.15393388  0.10992777  0.70845512     0.98000
C795        C  0.09453190  0.26403684  0.70808299     0.92900
O796        O  0.06983805  0.25451344  0.72387851    -0.83200
C797        C  0.14717931  0.43711828  0.86163153     0.85600
C798        C  0.16995709  0.41412874  0.88601035    -0.54700
C799        C  0.19148373  0.45347223  0.89741941     0.08500
C800        C  0.18649486  0.51312112  0.88468080     0.19500
C801        C  0.12948928  0.48753546  0.87608939    -0.55400
C802        C  0.14998989  0.52693672  0.88856378     0.08600
C803        C  0.17125464  0.46409375  0.83957109    -0.54900
C804        C  0.19160568  0.50399328  0.85172617     0.09200
H805        H  0.17103081  0.36994273  0.89213452     0.13700
H806        H  0.20308351  0.54621726  0.89376630    -0.00600
H807        H  0.10313173  0.49030325  0.87751843     0.14000
H808        H  0.17288758  0.45120019  0.81660524     0.13800
C809        C  0.14479302  0.43752529  0.63677554     0.85600
C810        C  0.16588277  0.47089810  0.65927771    -0.54700
C811        C  0.18724207  0.50821816  0.64681882     0.08500
C812        C  0.18592968  0.50872601  0.61326256     0.19500
C813        C  0.12850702  0.48310070  0.61779866    -0.55400
C814        C  0.15005390  0.52049956  0.60537795     0.08600
C815        C  0.17059112  0.40947621  0.61674116    -0.54900
C816        C  0.19237602  0.44650588  0.60455846     0.09200
H817        H  0.16544255  0.46339606  0.68284351     0.13700
H818        H  0.20332092  0.53967035  0.60382538    -0.00600
H819        H  0.10231873  0.48534921  0.61456590     0.14000
H820        H  0.17382041  0.36390954  0.61510283     0.13800
C821        C  0.95977195  0.03325679  0.59526532     0.85600
C822        C  0.93809329  0.99567643  0.61487202    -0.54700
C823        C  0.95533903  0.96128885  0.63342157     0.08500
C824        C  0.99267461  0.96712244  0.63021002     0.19500
C825        C  0.98196866  0.06584309  0.61690841    -0.55400
C826        C  0.99891638  0.03141002  0.63554750     0.08600
C827        C  0.98201367  0.99200134  0.57904055    -0.54900
C828        C  0.99922813  0.95712647  0.59690760     0.09200
H829        H  0.91165285  0.99794758  0.61499451     0.13700
H830        H  0.00673265  0.93907298  0.64511098    -0.00600
H831        H  0.98290961  0.11197242  0.61836041     0.14000
H832        H  0.98398653  0.99041421  0.55516454     0.13800
O833        O  0.39997442  0.68266199  0.78226797    -0.82700
C834        C  0.29238137  0.61494999  0.71079527     0.96600
O835        O  0.31175781  0.58356331  0.72481787    -0.71800
O836        O  0.37368917  0.59579109  0.71293797    -0.75400
Al837      Al  0.34947295  0.59674522  0.74837048     1.49000
C838        C  0.39849936  0.62472688  0.70649749     0.91900
O839        O  0.36840395  0.75827763  0.71357881    -0.81600
O840        O  0.31628887  0.74293159  0.78522528    -0.75200
Al841      Al  0.38198841  0.71689697  0.74785369     1.90100
O842        O  0.31779009  0.76854713  0.72737069    -0.74300
O843        O  0.28653189  0.64801357  0.77296283    -0.74100
O844        O  0.29305271  0.66824988  0.71429690    -0.79800
O845        O  0.32485863  0.58711794  0.78363772    -0.78000
O846        O  0.34622562  0.67258265  0.74862011    -1.14100
O847        O  0.38764926  0.59356435  0.77252690    -0.73300
C848        C  0.40244370  0.63045260  0.78787640     0.97400
C849        C  0.34158380  0.78417598  0.71196834     0.93800
Al850      Al  0.30695570  0.70424927  0.74980169     1.55600
O851        O  0.40631844  0.66848871  0.72134761    -0.77900
C852        C  0.29655581  0.60641113  0.78755483     0.98000
C853        C  0.33928826  0.77791979  0.78920426     0.92900
O854        O  0.36492830  0.77499869  0.77381100    -0.83200
O855        O  0.41659463  0.34949532  0.96620676    -0.82700
C856        C  0.30606898  0.37576032  0.53975188     0.96600
O857        O  0.32136118  0.41496380  0.52666164    -0.71800
O858        O  0.38371555  0.42604611  0.53620044    -0.75400
Al859      Al  0.35865480  0.41686082  0.00147122     1.49000
C860        C  0.41136276  0.40645091  0.54200848     0.91900
O861        O  0.39499776  0.26815588  0.53612766    -0.81600
O862        O  0.34276487  0.26426693  0.96288375    -0.75200
Al863      Al  0.40381374  0.31061938  0.50106598     1.90100
O864        O  0.34765878  0.23546299  0.52086722    -0.74300
O865        O  0.30232790  0.34386704  0.97656943    -0.74100
O866        O  0.31182817  0.32404121  0.53435321    -0.79800
O867        O  0.33176493  0.41918951  0.96709866    -0.78000
O868        O  0.36392134  0.34145856  0.00051025    -1.14100
O869        O  0.39476569  0.43294100  0.97585752    -0.73300
C870        C  0.41289189  0.40145107  0.96031124     0.97400
C871        C  0.37158257  0.23336930  0.53824483     0.93800
Al872      Al  0.32929426  0.29579866  0.99879315     1.55600
O873        O  0.42349887  0.36719965  0.52650427    -0.77900
C874        C  0.30646055  0.38953937  0.96295604     0.98000
C875        C  0.36871914  0.23696433  0.95930828     0.92900
O876        O  0.39315995  0.24579570  0.97583570    -0.83200
C877        C  0.31490594  0.06414052  0.88798809     0.85600
C878        C  0.29186484  0.03716719  0.91090238    -0.54700
C879        C  0.27054302  0.99832186  0.89928597     0.08500
C880        C  0.27341554  0.99059028  0.86599562     0.19500
C881        C  0.33104105  0.01371723  0.87221766    -0.55400
C882        C  0.30940202  0.97498651  0.86056009     0.08600
C883        C  0.29116071  0.08910415  0.86508840    -0.54900
C884        C  0.26900138  0.05100424  0.85398941     0.09200
H885        H  0.29184426  0.04868055  0.93411413     0.13700
H886        H  0.25532063  0.95978950  0.85711778    -0.00600
H887        H  0.35729680  0.00889701  0.87094595     0.14000
H888        H  0.29007703  0.13357099  0.85942711     0.13800
C889        C  0.31604087  0.06524587  0.61103380     0.85600
C890        C  0.29174463  0.08981082  0.63391287    -0.54700
C891        C  0.27033083  0.05047914  0.64508699     0.08500
C892        C  0.27648877  0.99016085  0.63344614     0.19500
C893        C  0.33348895  0.01669129  0.62702723    -0.55400
C894        C  0.31276238  0.97783582  0.63913807     0.08600
C895        C  0.29323961  0.03576701  0.58833308    -0.54900
C896        C  0.27274877  0.99641512  0.60027728     0.09200
H897        H  0.28955323  0.13462547  0.63895619     0.13700
H898        H  0.25976916  0.95728006  0.64217187    -0.00600
H899        H  0.35979001  0.01463173  0.62952046     0.14000
H900        H  0.29209679  0.04728559  0.56524064     0.13800
C901        C  0.45694100  0.55411603  0.85214408     0.85600
C902        C  0.43659702  0.51517724  0.87217668    -0.54700
C903        C  0.45510101  0.48184155  0.89022330     0.08500
C904        C  0.49210768  0.48979555  0.88616542     0.19500
C905        C  0.47910684  0.58790915  0.87341248    -0.55400
C906        C  0.49724121  0.55423722  0.89156771     0.08600
C907        C  0.47957406  0.51424000  0.83532777    -0.54900
C908        C  0.49791415  0.48027627  0.85278087     0.09200
H909        H  0.41013827  0.51592235  0.87300312     0.13700
H910        H  0.50707017  0.46242786  0.90069205    -0.00600
H911        H  0.47911106  0.63402702  0.87505587     0.14000
H912        H  0.48077822  0.51257632  0.81141157     0.13800
C913        C  0.64544538  0.93948410  0.88500065     0.85600
C914        C  0.66788522  0.97065084  0.90733037    -0.54700
C915        C  0.68717899  0.01138492  0.89518346     0.08500
C916        C  0.68317350  0.01704361  0.86203039     0.19500
C917        C  0.62669196  0.98677945  0.86930201    -0.54200
C918        C  0.64644813  0.02768671  0.85742095     0.08600
C919        C  0.66952045  0.91657950  0.86179291    -0.54900
C920        C  0.68991832  0.95674741  0.85046444     0.09200
H921        H  0.66964889  0.95944421  0.93044489     0.13700
H922        H  0.69952997  0.04983974  0.85253163    -0.00600
H923        H  0.60026624  0.98892413  0.86878400     0.14000
H924        H  0.67297441  0.87209867  0.85659962     0.13800
O925        O  0.55534779  0.33519073  0.79347018    -0.82700
C926        C  0.65998024  0.38363289  0.71534566     0.96600
O927        O  0.64423524  0.41889105  0.73077727    -0.71800
O928        O  0.58133526  0.41654682  0.72246613    -0.75400
Al929      Al  0.60751145  0.41179301  0.75650391     1.49000
C930        C  0.55457672  0.39202510  0.71741340     0.91900
O931        O  0.57612438  0.25724502  0.72183406    -0.81600
O932        O  0.63520735  0.26101806  0.78995334    -0.75200
Al933      Al  0.56820535  0.29850972  0.75749522     1.90100
O934        O  0.62665402  0.23467587  0.73192213    -0.74300
O935        O  0.66922019  0.35082203  0.77534926    -0.74100
O936        O  0.65548689  0.33079427  0.71807157    -0.79800
O937        O  0.63489133  0.41561555  0.79060172    -0.78000
O938        O  0.60625461  0.33597065  0.75603519    -1.14100
O939        O  0.57127010  0.42169464  0.78250913    -0.73300
C940        C  0.55540566  0.38803088  0.79860452     0.97400
C941        C  0.60095578  0.22730230  0.71714896     0.93800
Al942      Al  0.64332806  0.29744142  0.75408402     1.55600
O943        O  0.54466268  0.35157099  0.73330676    -0.77900
C944        C  0.66296655  0.39392218  0.79087884     0.98000
C945        C  0.61100822  0.22926208  0.79482134     0.92900
O946        O  0.58429898  0.23649572  0.78127794    -0.83200
C947        C  0.64750756  0.05314977  0.64151044     0.85600
C948        C  0.67090590  0.07556183  0.61759469    -0.54700
C949        C  0.69074098  0.03506855  0.60552375     0.08500
C950        C  0.68406457  0.97519036  0.61734863     0.19500
C951        C  0.62805802  0.00537876  0.62641921    -0.55400
C952        C  0.64691493  0.96418335  0.61371356     0.08600
C953        C  0.67054408  0.02270537  0.66319715    -0.54900
C954        C  0.68978565  0.98235978  0.65044505     0.09200
H955        H  0.67408175  0.12006089  0.61245883     0.13700
H956        H  0.69982436  0.94214234  0.60741481    -0.00600
H957        H  0.60160957  0.00380425  0.62655516     0.14000
H958        H  0.67310718  0.03493940  0.68621306     0.13800
O959        O  0.54731229  0.66770842  0.97102325    -0.82700
C960        C  0.65840763  0.61412298  0.54097700     0.96600
O961        O  0.63953721  0.58057740  0.52720277    -0.71800
O962        O  0.57684721  0.58281489  0.53745402    -0.75400
Al963      Al  0.60224298  0.58857003  0.00268344     1.49000
C964        C  0.55188926  0.60986861  0.54521045     0.91900
O965        O  0.57767337  0.74764583  0.54000257    -0.81600
O966        O  0.62848084  0.74036332  0.96782107    -0.75200
Al967      Al  0.56487899  0.70451770  0.50546783     1.90100
O968        O  0.62802504  0.76369222  0.52661029    -0.74300
O969        O  0.66257581  0.65129549  0.97847022    -0.74100
O970        O  0.65678039  0.66719772  0.53714381    -0.79800
O971        O  0.62855060  0.58232496  0.96787438    -0.78000
O972        O  0.60239913  0.66497939  0.00367918    -1.14100
O973        O  0.56524485  0.58085131  0.97726108    -0.73300
C974        C  0.54799540  0.61595064  0.96345702     0.97400
C975        C  0.60442104  0.77390542  0.54323928     0.93800
Al976      Al  0.64033380  0.70244118  0.00257782     1.55600
O977        O  0.54302569  0.65376322  0.53171167    -0.77900
C978        C  0.65527586  0.60781602  0.96380471     0.98000
C979        C  0.60326502  0.76947460  0.96355377     0.92900
O980        O  0.57857693  0.76443534  0.97981612    -0.83200
C981        C  0.50105020  0.46895519  0.65324667     0.85600
C982        C  0.47833508  0.50876548  0.66987153    -0.54700
C983        C  0.46040171  0.54299809  0.65228040     0.08500
C984        C  0.46693458  0.53420961  0.61895424     0.19500
C985        C  0.47914742  0.43572116  0.63156650    -0.55400
C986        C  0.46151551  0.47003701  0.61335662     0.08600
C987        C  0.52199851  0.50761718  0.63375585    -0.54900
C988        C  0.50413202  0.54131563  0.61546856     0.09200
H989        H  0.47633158  0.50946701  0.69375030     0.13700
H990        H  0.45237198  0.56193921  0.60428324    -0.00600
H991        H  0.47881881  0.38961099  0.62981955     0.14000
H992        H  0.54845278  0.50576244  0.63309687     0.13800
C993        C  0.51913113  0.57097950  0.59113618    -0.14200
C994        C  0.53329204  0.59030215  0.57009723    -0.15700
C995        C  0.60278076  0.91450577  0.58367808    -0.14300
C996        C  0.63294439  0.91277111  0.59871485     0.07900
C997        C  0.65036539  0.86158607  0.59868742    -0.14300
C998        C  0.63917393  0.81470812  0.58249814    -0.14300
C999        C  0.61005115  0.81736644  0.56625817     0.07900
C1000       C  0.59139252  0.86706119  0.56758439    -0.14300
H1001       H  0.58876329  0.95334397  0.58306230     0.11900
H1002       H  0.67304328  0.85781878  0.61070341     0.11900
H1003       H  0.65412870  0.77686179  0.58152120     0.11900
H1004       H  0.56933030  0.87054103  0.55458935     0.11900
C1005       C  0.51988950  0.43380869  0.67369978    -0.14200
C1006       C  0.53503438  0.41169255  0.69329941    -0.15700
C1007       C  0.61187228  0.19664458  0.66608982    -0.14300
C1008       C  0.60124035  0.18292140  0.69438121     0.07900
C1009       C  0.59948318  0.12577019  0.70268181    -0.14300
C1010       C  0.61119471  0.08322757  0.68386728    -0.14300
C1011       C  0.62631864  0.09748737  0.65706879     0.07900
C1012       C  0.62393584  0.15426144  0.64739111    -0.14300
H1013       H  0.61326601  0.24069173  0.65934700     0.11900
H1014       H  0.59147144  0.11452934  0.72460319     0.11900
H1015       H  0.61130794  0.03971600  0.69152180     0.11900
H1016       H  0.63258316  0.16723605  0.62605661     0.11900
C1017       C  0.60692522  0.08007331  0.82499916    -0.14300
C1018       C  0.63413906  0.08052384  0.84387658     0.07900
C1019       C  0.65073890  0.13194422  0.84913727    -0.14300
C1020       C  0.64156255  0.18131635  0.83469079    -0.14300
C1021       C  0.61558010  0.18044607  0.81454739     0.07900
C1022       C  0.59772554  0.12977407  0.81035657    -0.14300
H1023       H  0.59378711  0.04085788  0.82051511     0.11900
H1024       H  0.67133325  0.13393195  0.86398145     0.11900
H1025       H  0.65568624  0.21982107  0.83841815     0.11900
H1026       H  0.57790954  0.12778552  0.79455883     0.11900
C1027       C  0.62455495  0.83723116  0.89219026    -0.14300
C1028       C  0.62423051  0.89525827  0.90034165     0.07900
C1029       C  0.60788642  0.91069771  0.92646136    -0.14300
C1030       C  0.59795717  0.86900096  0.94636546    -0.14300
C1031       C  0.60378989  0.81156275  0.94004473     0.07900
C1032       C  0.61528070  0.79578037  0.91225520    -0.14300
H1033       H  0.63360327  0.82268082  0.87120609     0.11900
H1034       H  0.60597477  0.95504604  0.93288851     0.11900
H1035       H  0.58864756  0.88178170  0.96769850     0.11900
H1036       H  0.61878970  0.75129936  0.90671456     0.11900
C1037       C  0.53644345  0.41173920  0.82250754    -0.14200
C1038       C  0.51989031  0.43945405  0.83935823    -0.15700
C1039       C  0.52953684  0.59603902  0.93810957    -0.14200
C1040       C  0.51533491  0.57727844  0.91660714    -0.15700
C1041       C  0.42909991  0.42567577  0.93510351    -0.14200
C1042       C  0.44117227  0.44907649  0.91407834    -0.15700
C1043       C  0.44329184  0.44785203  0.58837813    -0.14200
C1044       C  0.42910457  0.42903715  0.56699252    -0.15700
C1045       C  0.34362692  0.16161464  0.89102289    -0.14300
C1046       C  0.33910732  0.10615993  0.90197077     0.07900
C1047       C  0.35485948  0.09205840  0.92856334    -0.14300
C1048       C  0.36904001  0.13461466  0.94624480    -0.14300
C1049       C  0.36827231  0.19140386  0.93716555     0.07900
C1050       C  0.35741114  0.20403354  0.90877003    -0.14300
H1051       H  0.33509343  0.17385116  0.86952459     0.11900
H1052       H  0.35328153  0.04922107  0.93704678     0.11900
H1053       H  0.37728155  0.12410413  0.96822663     0.11900
H1054       H  0.35713996  0.24766203  0.90126045     0.11900
C1055       C  0.35552402  0.09144342  0.57044221    -0.14300
C1056       C  0.33945134  0.10754006  0.59656989     0.07900
C1057       C  0.34364944  0.16400754  0.60679779    -0.14300
C1058       C  0.35878537  0.20479960  0.58909034    -0.14300
C1059       C  0.37028793  0.18979952  0.56112331     0.07900
C1060       C  0.37007518  0.13242411  0.55254568    -0.14300
H1061       H  0.35406259  0.04796834  0.56245258     0.11900
H1062       H  0.33408496  0.17798970  0.62772142     0.11900
H1063       H  0.35866679  0.24899606  0.59604564     0.11900
H1064       H  0.37859265  0.12009810  0.53085830     0.11900
C1065       C  0.41900678  0.60517172  0.68271883    -0.14200
C1066       C  0.43695493  0.58110637  0.66560800    -0.15700
C1067       C  0.42207293  0.61156401  0.81232511    -0.14200
C1068       C  0.43750672  0.58911545  0.83177799    -0.15700
C1069       C  0.35580792  0.87230428  0.81102280    -0.14300
C1070       C  0.33465072  0.82508241  0.81046650     0.07900
C1071       C  0.30660842  0.82610710  0.82807261    -0.14300
C1072       C  0.29904702  0.87409345  0.84480334    -0.14300
C1073       C  0.31932748  0.92241296  0.84452034     0.07900
C1074       C  0.34822482  0.92055134  0.82791279    -0.14300
H1075       H  0.37747217  0.87295190  0.79746029     0.11900
H1076       H  0.28981663  0.79038016  0.82824108     0.11900
H1077       H  0.27697278  0.87312815  0.85755806     0.11900
H1078       H  0.36428967  0.95712417  0.82692680     0.11900
C1079       C  0.31075404  0.87103705  0.70013662    -0.14300
C1080       C  0.33697801  0.83503684  0.69345593     0.07900
C1081       C  0.35739273  0.84880479  0.66969691    -0.14300
C1082       C  0.35043064  0.89636253  0.65212119    -0.14300
C1083       C  0.32313443  0.93047079  0.65833251     0.07900
C1084       C  0.30413980  0.91807158  0.68299083    -0.14300
H1085       H  0.29507420  0.86290784  0.71880175     0.11900
H1086       H  0.37801659  0.82217466  0.66430602     0.11900
H1087       H  0.36565320  0.90541419  0.63328258     0.11900
H1088       H  0.28392923  0.94489964  0.68916794     0.11900
C1089       C  0.23290553  0.50489965  0.68266711    -0.14300
C1090       C  0.21379159  0.53655208  0.66325049     0.07900
C1091       C  0.22182164  0.59362217  0.65787857    -0.14300
C1092       C  0.24800499  0.61942058  0.67272697    -0.14300
C1093       C  0.26692700  0.58780936  0.69248161     0.07900
C1094       C  0.25935315  0.53014705  0.69697214    -0.14300
H1095       H  0.22764267  0.46039788  0.68645320     0.11900
H1096       H  0.20751745  0.61836852  0.64255288     0.11900
H1097       H  0.25327976  0.66392088  0.66898376     0.11900
H1098       H  0.27333974  0.50473087  0.71224017     0.11900
C1099       C  0.22313953  0.37394240  0.57462013    -0.14300
C1100       C  0.22233620  0.42720069  0.58898538     0.07900
C1101       C  0.25075595  0.46111879  0.58908899    -0.14300
C1102       C  0.27859144  0.44353943  0.57399601    -0.14300
C1103       C  0.27897254  0.39087663  0.55934291     0.07900
C1104       C  0.25129939  0.35568629  0.56033282    -0.14300
H1105       H  0.20181266  0.34674720  0.57364982     0.11900
H1106       H  0.25183831  0.50125290  0.60082821     0.11900
H1107       H  0.29973320  0.47131308  0.57352862     0.11900
H1108       H  0.25082840  0.31526247  0.54870672     0.11900
C1109       C  0.23416834  0.38210245  0.91217389    -0.14300
C1110       C  0.22154556  0.43761929  0.91422750     0.07900
C1111       C  0.23937582  0.47859724  0.93059437    -0.14300
C1112       C  0.26851210  0.46413307  0.94480384    -0.14300
C1113       C  0.28003402  0.40822724  0.94344598     0.07900
C1114       C  0.26271348  0.36749714  0.92693443    -0.14300
H1115       H  0.22239990  0.34945590  0.89896511     0.11900
H1116       H  0.23072564  0.52159593  0.93310728     0.11900
H1117       H  0.28113435  0.49587825  0.95808252     0.11900
H1118       H  0.27114316  0.32396990  0.92574064     0.11900
C1119       C  0.22595204  0.58811554  0.83915222    -0.14300
C1120       C  0.21955222  0.52972045  0.83615936     0.07900
C1121       C  0.24103007  0.49565468  0.81976480    -0.14300
C1122       C  0.26798575  0.52006075  0.80577065    -0.14300
C1123       C  0.27338791  0.57892893  0.80757944     0.07900
C1124       C  0.25236735  0.61268674  0.82458217    -0.14300
H1125       H  0.20990302  0.61496583  0.85200559     0.11900
H1126       H  0.23691171  0.45023887  0.81778710     0.11900
H1127       H  0.28356307  0.49353308  0.79227978     0.11900
H1128       H  0.25594042  0.65834024  0.82591375     0.11900
C1129       C  0.19693856  0.04541562  0.80137899    -0.14300
C1130       C  0.18390360  0.10032550  0.80452845     0.07900
C1131       C  0.19892519  0.13888876  0.82403364    -0.14300
C1132       C  0.22649270  0.12296834  0.84000503    -0.14300
C1133       C  0.24008141  0.06841824  0.83639636     0.07900
C1134       C  0.22484225  0.02978271  0.81697623    -0.14300
H1135       H  0.18616497  0.01497931  0.78612157     0.11900
H1136       H  0.18940866  0.18145249  0.82690668     0.11900
H1137       H  0.23676522  0.15341830  0.85546428     0.11900
H1138       H  0.23474487  0.98777945  0.81331951     0.11900
C1139       C  0.22302048  0.02471907  0.67793399    -0.14300
C1140       C  0.23955914  0.06545169  0.66081835     0.07900
C1141       C  0.22500094  0.11899361  0.65700870    -0.14300
C1142       C  0.19570380  0.13209880  0.67099538    -0.14300
C1143       C  0.17980306  0.09158813  0.68840467     0.07900
C1144       C  0.19332384  0.03750524  0.69136634    -0.14300
H1145       H  0.23314571  0.98316410  0.68176680     0.11900
H1146       H  0.23601481  0.15101972  0.64322512     0.11900
H1147       H  0.18577878  0.17449891  0.66883526     0.11900
H1148       H  0.18195082  0.00635298  0.70553096     0.11900
C1149       C  0.01686727  0.05443329  0.66067254    -0.14200
C1150       C  0.03046617  0.07544688  0.68194310    -0.15700
C1151       C  0.10636981  0.40938208  0.67827134    -0.14300
C1152       C  0.12102041  0.39582943  0.65106935     0.07900
C1153       C  0.11657240  0.34030137  0.63971595    -0.14300
C1154       C  0.10433906  0.29725418  0.65755382    -0.14300
C1155       C  0.09465318  0.30959767  0.68637403     0.07900
C1156       C  0.09354497  0.36631563  0.69597443    -0.14300
H1157       H  0.10758867  0.45227286  0.68705472     0.11900
H1158       H  0.12455033  0.32878555  0.61780535     0.11900
H1159       H  0.10474795  0.25367480  0.64965811     0.11900
H1160       H  0.08597604  0.37654127  0.71823736     0.11900
C1161       C  0.09442875  0.36763787  0.80183608    -0.14300
C1162       C  0.09418691  0.31036596  0.81017374     0.07900
C1163       C  0.10573079  0.29594339  0.83815019    -0.14300
C1164       C  0.12034599  0.33728580  0.85634168    -0.14300
C1165       C  0.12425225  0.39387904  0.84657778     0.07900
C1166       C  0.10862723  0.40913330  0.82013859    -0.14300
H1167       H  0.08607761  0.37953795  0.78010858     0.11900
H1168       H  0.10602191  0.25183595  0.84489031     0.11900
H1169       H  0.12963375  0.32344587  0.87729689     0.11900
H1170       H  0.11008693  0.45248541  0.81230846     0.11900
C1171       C  0.21000619  0.88885539  0.57527663    -0.14300
C1172       C  0.18805629  0.92288079  0.55960977     0.07900
C1173       C  0.19400332  0.98148708  0.55739186    -0.14300
C1174       C  0.22226733  0.00532820  0.56976174    -0.14300
C1175       C  0.24455384  0.97090134  0.58482160     0.07900
C1176       C  0.23781372  0.91283812  0.58812929    -0.14300
H1177       H  0.20607039  0.84335052  0.57679110     0.11900
H1178       H  0.17775221  0.00813060  0.54478895     0.11900
H1179       H  0.22664062  0.05061916  0.56777645     0.11900
H1180       H  0.25442473  0.88590948  0.60018551     0.11900
C1181       C  0.22159831  0.00384797  0.93140982    -0.14300
C1182       C  0.24443126  0.97074607  0.91626026     0.07900
C1183       C  0.24094369  0.91143298  0.91566103    -0.14300
C1184       C  0.21507042  0.88528863  0.93030267    -0.14300
C1185       C  0.19210977  0.91823186  0.94559632     0.07900
C1186       C  0.19556569  0.97784993  0.94587662    -0.14300
H1187       H  0.22371153  0.04978845  0.93171022     0.11900
H1188       H  0.25857597  0.88529248  0.90440577     0.11900
H1189       H  0.21338647  0.83930345  0.93007391     0.11900
H1190       H  0.17849916  0.00443228  0.95773758     0.11900
C1191       C  0.03816685  0.89070596  0.56618406    -0.14200
C1192       C  0.02132652  0.91629379  0.58368970    -0.15700
C1193       C  0.14838019  0.63364952  0.95053134    -0.14300
C1194       C  0.12264233  0.66999686  0.94287305     0.07900
C1195       C  0.10394981  0.65703281  0.91766542    -0.14300
C1196       C  0.11208405  0.60970013  0.89987762    -0.14300
C1197       C  0.13891103  0.57522952  0.90723692     0.07900
C1198       C  0.15632384  0.58719606  0.93306255    -0.14300
H1199       H  0.16275918  0.64117381  0.97026126     0.11900
H1200       H  0.08385957  0.68404400  0.91137698     0.11900
H1201       H  0.09809372  0.60096828  0.88007486     0.11900
H1202       H  0.17621234  0.56037054  0.93995411     0.11900
C1203       C  0.16205330  0.58951106  0.56533650    -0.14300
C1204       C  0.14051248  0.56980357  0.58699800     0.07900
C1205       C  0.11128919  0.59963118  0.59190699    -0.14300
C1206       C  0.10436382  0.64904232  0.57593992    -0.14300
C1207       C  0.12697734  0.66985235  0.55552707     0.07900
C1208       C  0.15559291  0.63933325  0.55013194    -0.14300
H1209       H  0.18407979  0.56653180  0.56001885     0.11900
H1210       H  0.09424893  0.58573657  0.60854215     0.11900
H1211       H  0.08190795  0.67174866  0.58004783     0.11900
H1212       H  0.17280837  0.65368750  0.53369506     0.11900
C1213       C  0.01926204  0.05570333  0.83504959    -0.14200
C1214       C  0.03308720  0.07478821  0.81379475    -0.15700
C1215       C  0.02244015  0.91878764  0.91722025    -0.14200
C1216       C  0.03917525  0.89815370  0.93637636    -0.15700
C1217       C  0.92745920  0.09364124  0.55487422    -0.14200
C1218       C  0.94185213  0.06958185  0.57443569    -0.15700
C1219       C  0.91772320  0.08547569  0.92574503    -0.14200
C1220       C  0.93578062  0.06086461  0.90892204    -0.15700
C1221       C  0.74056037  0.12169662  0.93224865    -0.14300
C1222       C  0.76729568  0.08842996  0.94073196     0.07900
C1223       C  0.76762533  0.03022841  0.93332647    -0.14300
C1224       C  0.74130938  0.00538800  0.91862103    -0.14300
C1225       C  0.71434245  0.03830506  0.91103464     0.07900
C1226       C  0.71420440  0.09666168  0.91738693    -0.14300
H1227       H  0.73955608  0.16646182  0.93790689     0.11900
H1228       H  0.78793321  0.00349568  0.93947593     0.11900
H1229       H  0.74187854  0.96043911  0.91322226     0.11900
H1230       H  0.69343315  0.12244421  0.91154897     0.11900
C1231       C  0.76372518  0.02529166  0.55406113    -0.14300
C1232       C  0.77874987  0.07826096  0.55887272     0.07900
C1233       C  0.76588662  0.11552909  0.57998788    -0.14300
C1234       C  0.73772472  0.10113455  0.59535730    -0.14300
C1235       C  0.72120318  0.04964391  0.58934489     0.07900
C1236       C  0.73506362  0.01114770  0.56912582    -0.14300
H1237       H  0.77278764  0.99675600  0.53718819     0.11900
H1238       H  0.77693576  0.15702402  0.58365933     0.11900
H1239       H  0.72882924  0.13085968  0.61170329     0.11900
H1240       H  0.72311755  0.97105525  0.56403457     0.11900
C1241       C  0.92583026  0.90708966  0.67736559    -0.14200
C1242       C  0.93973727  0.92915255  0.65679926    -0.15700
C1243       C  0.94519432  0.93137077  0.83085084    -0.14200
C1244       C  0.93020284  0.91547227  0.80919123    -0.15700
C1245       C  0.76638728  0.87606418  0.82984580    -0.14300
C1246       C  0.77936173  0.91021965  0.80758720     0.07900
C1247       C  0.76361942  0.96129457  0.80038007    -0.14300
C1248       C  0.73456582  0.97658681  0.81428532    -0.14300
C1249       C  0.72085412  0.94116045  0.83567256     0.07900
C1250       C  0.73761922  0.89162205  0.84392585    -0.14300
H1251       H  0.77805934  0.83662455  0.83587563     0.11900
H1252       H  0.77287508  0.98807606  0.78294825     0.11900
H1253       H  0.72234507  0.01510590  0.80766094     0.11900
H1254       H  0.72852449  0.86456643  0.86128251     0.11900
C1255       C  0.77626108  0.93901943  0.66875188    -0.14300
C1256       C  0.77206195  0.91350492  0.69624604     0.07900
C1257       C  0.74054525  0.90987634  0.70834554    -0.14300
C1258       C  0.71375796  0.93201840  0.69343578    -0.14300
C1259       C  0.71785641  0.95691548  0.66582804     0.07900
C1260       C  0.74922813  0.95990166  0.65344931    -0.14300
H1261       H  0.80027691  0.94231537  0.65905018     0.11900
H1262       H  0.73669959  0.89087652  0.72970967     0.11900
H1263       H  0.68982791  0.92956109  0.70338007     0.11900
H1264       H  0.75297174  0.97963833  0.63231288     0.11900
C1265       C  0.74725867  0.44768374  0.80881954    -0.14300
C1266       C  0.74322279  0.46929521  0.83736809     0.07900
C1267       C  0.71218953  0.46742972  0.85049016    -0.14300
C1268       C  0.68557784  0.44391868  0.83533048    -0.14300
C1269       C  0.68995303  0.42075309  0.80716566     0.07900
C1270       C  0.72089998  0.42299188  0.79397845    -0.14300
H1271       H  0.77086536  0.44900031  0.79825895     0.11900
H1272       H  0.70836191  0.48486047  0.87234892     0.11900
H1273       H  0.66188460  0.44281526  0.84571957     0.11900
H1274       H  0.72460169  0.40600511  0.77196693     0.11900
C1275       C  0.72402086  0.52134613  0.93334368    -0.14300
C1276       C  0.73966864  0.56141530  0.91517762     0.07900
C1277       C  0.72430518  0.61393027  0.91045407    -0.14300
C1278       C  0.69505723  0.62690462  0.92450445    -0.14300
C1279       C  0.68001410  0.58739170  0.94309183     0.07900
C1280       C  0.69438833  0.53414880  0.94707938    -0.14300
H1281       H  0.73490480  0.48055223  0.93762989     0.11900
H1282       H  0.73468957  0.64525824  0.89586509     0.11900
H1283       H  0.68464789  0.66878489  0.92168090     0.11900
H1284       H  0.68379740  0.50393207  0.96223670     0.11900
C1285       C  0.85310284  0.58988558  0.82258283    -0.14300
C1286       C  0.83728009  0.60604008  0.84885481     0.07900
C1287       C  0.83976561  0.66351714  0.85791966    -0.14300
C1288       C  0.85261566  0.70453125  0.83897117    -0.14300
C1289       C  0.86386315  0.68880016  0.81102383     0.07900
C1290       C  0.86555886  0.63102783  0.80351306    -0.14300
H1291       H  0.85275464  0.54585873  0.81534602     0.11900
H1292       H  0.83036420  0.67811748  0.87877680     0.11900
H1293       H  0.85114515  0.74908261  0.84511422     0.11900
H1294       H  0.87386331  0.61814275  0.78185697     0.11900
C1295       C  0.85085262  0.39149592  0.90061850    -0.14300
C1296       C  0.82378400  0.42494033  0.90861459     0.07900
C1297       C  0.80611895  0.41043671  0.93373088    -0.14300
C1298       C  0.81408045  0.36261124  0.94985192    -0.14300
C1299       C  0.84018839  0.32735167  0.94154681     0.07900
C1300       C  0.85902858  0.34283137  0.91702361    -0.14300
H1301       H  0.86502079  0.40204583  0.88133086     0.11900
H1302       H  0.78601192  0.43630260  0.94112575     0.11900
H1303       H  0.79941627  0.35330782  0.96903216     0.11900
H1304       H  0.87945539  0.31692260  0.91025224     0.11900
C1305       C  0.73220090  0.60106791  0.59090897    -0.14300
C1306       C  0.73887686  0.54278819  0.58828484     0.07900
C1307       C  0.71743711  0.50785543  0.57212854    -0.14300
C1308       C  0.69037820  0.53095563  0.55812407    -0.14300
C1309       C  0.68430552  0.58972173  0.55965040     0.07900
C1310       C  0.70530336  0.62458108  0.57647845    -0.14300
H1311       H  0.74840001  0.62895005  0.60336403     0.11900
H1312       H  0.72163174  0.46252472  0.57033107     0.11900
H1313       H  0.67478506  0.50280849  0.54524963     0.11900
H1314       H  0.70134489  0.66999083  0.57791877     0.11900
C1315       C  0.74387826  0.39728417  0.68400576    -0.14300
C1316       C  0.74159381  0.44698620  0.66711782     0.07900
C1317       C  0.71172676  0.47609280  0.66620643    -0.14300
C1318       C  0.68466822  0.45526463  0.68152181    -0.14300
C1319       C  0.68687963  0.40416056  0.69709207     0.07900
C1320       C  0.71668189  0.37559977  0.69835347    -0.14300
H1321       H  0.76666391  0.37465422  0.68594345     0.11900
H1322       H  0.70887844  0.51395396  0.65307160     0.11900
H1323       H  0.66195306  0.47843814  0.68087373     0.11900
H1324       H  0.71920676  0.33728431  0.71126029     0.11900
C1325       C  0.81745661  0.68603196  0.66892677    -0.14300
C1326       C  0.84505520  0.68337076  0.68722213     0.07900
C1327       C  0.86384702  0.63356681  0.68703720    -0.14300
C1328       C  0.85385797  0.58610516  0.67020860    -0.14300
C1329       C  0.82493445  0.58791161  0.65343269     0.07900
C1330       C  0.80759044  0.63898478  0.65235446    -0.14300
H1331       H  0.80267122  0.72401270  0.66829094     0.11900
H1332       H  0.88513085  0.63022804  0.70110656     0.11900
H1333       H  0.86779699  0.54725378  0.67151600     0.11900
H1334       H  0.78568460  0.64252629  0.63907129     0.11900
C1335       C  0.84411335  0.41402504  0.56670212    -0.14300
C1336       C  0.83119121  0.40247023  0.59474214     0.07900
C1337       C  0.83427520  0.34664389  0.60566753    -0.14300
C1338       C  0.84360273  0.30217710  0.58710284    -0.14300
C1339       C  0.85206281  0.31314855  0.55793201     0.07900
C1340       C  0.85429466  0.36954212  0.54833004    -0.14300
H1341       H  0.84357010  0.45676118  0.55802432     0.11900
H1342       H  0.82809802  0.33602744  0.62805249     0.11900
H1343       H  0.84267737  0.25889254  0.59506614     0.11900
H1344       H  0.86103083  0.37871007  0.52579374     0.11900
loop_ 
_geom_bond_atom_site_label_1 
_geom_bond_atom_site_label_2 
_geom_bond_distance 
_geom_bond_site_symmetry_2 
_ccdc_geom_bond_type 
C1            C2   1.543       .  S
C1            C7   1.537       .  S
C1            C5   1.534       .  S
C1          C664   1.529       .  S
C2            H9   1.086       .  S
C2            C3   1.366       .  D
C3            C4   1.531       .  S
C3          C634   1.480       .  S
C4            C8   1.538       .  S
C4            C6   1.547       .  S
C4           H10   1.109       .  S
C5           H11   1.086       .  S
C5            C6   1.369       .  D
C6          C657   1.488       .  S
C7           H12   1.081       .  S
C7            C8   1.363       .  D
C8          C644   1.486       .  S
C13          C14   1.553       .  S
C13          C19   1.544       .  S
C13          C17   1.537       .  S
C13         C614   1.533       .  S
C14          H21   1.081       .  S
C14          C15   1.372       .  D
C15          C16   1.531       .  S
C15         C604   1.494       .  S
C16          C20   1.526       .  S
C16          C18   1.545       .  S
C16          H22   1.108       .  S
C17          H23   1.086       .  S
C17          C18   1.367       .  D
C18         C624   1.487       .  S
C19          H24   1.087       .  S
C19          C20   1.363       .  D
C20         C594   1.476       .  S
O25          C40   1.260       .  A
O25         Al33   1.914       .  S
C26          O36   1.262       .  A
C26          O27   1.265       .  A
C26         C574   1.473       .  S
O27         Al29   1.924       .  S
O28          C30   1.261       .  A
O28         Al29   1.899       .  S
Al29         O37   1.923       .  S
Al29         O39   1.920       .  S
Al29         O38   1.786       .  S
C30          O43   1.267       .  A
C30         C572   1.448       .  S
O31          C41   1.258       .  A
O31         Al33   1.915       .  S
O32          C45   1.260       .  A
O32         Al42   1.869       .  S
Al33         O46   1.953       .  S
Al33         O43   1.936       .  S
Al33         O38   1.789       .  S
O34          C41   1.255       .  A
O34         Al42   1.894       .  S
O35          C44   1.258       .  A
O35         Al42   1.896       .  S
O36         Al42   1.891       .  S
O37          C44   1.265       .  A
O38         Al42   1.776       .  S
O39          C40   1.261       .  A
C40         C569   1.450       .  S
C41         C617   1.466       .  S
C44         C584   1.474       .  S
C45          O46   1.271       .  A
C45         C654   1.480       .  S
O47          C62   1.263       .  A
O47        Al727   1.918   1_554  S
C48          O58   1.264       .  A
C48          O49   1.263       .  A
C48         C550   1.472       .  S
O49        Al723   1.894       .  S
O50          C52   1.257       .  A
O50        Al723   1.898       .  S
Al51         O59   1.917   1_556  S
Al51         O61   1.900   1_556  S
Al51        O721   1.894       .  S
Al51        O722   1.898       .  S
Al51         O60   1.795       .  S
C52          O65   1.261       .  A
C52         C547   1.445       .  S
O53          C63   1.266       .  A
O53         Al55   1.942       .  S
O54          C67   1.260       .  A
O54         Al64   1.888   1_554  S
Al55         O65   1.921       .  S
Al55        O719   1.918       .  S
Al55        O740   1.925       .  S
Al55        O732   1.800       .  S
O56          C63   1.255       .  A
O56        Al736   1.873       .  S
O57          C66   1.250       .  A
O57         Al64   1.870   1_554  S
O58        Al736   1.897       .  S
O59          C66   1.258       .  A
O60         Al64   1.781       .  S
O60        Al727   1.800       .  S
O61          C62   1.259       .  A
C62         C545   1.443       .  S
C63         C627   1.487       .  S
Al64        O728   1.873       .  S
Al64        O730   1.897       .  S
C66         C560   1.465       .  S
C67          O68   1.263       .  A
C67         C667   1.463       .  S
O68        Al727   1.925   1_554  S
C69          C70   1.525   1_455  S
C69          C75   1.534       .  S
C69          C73   1.544   1_455  S
C69         C543   1.479       .  S
C70          H77   1.088       .  S
C70          C71   1.358   1_565  D
C71          C72   1.549       .  S
C71         C548   1.450       .  S
C72          C76   1.542   1_655  S
C72          C74   1.540   1_545  S
C72          H78   1.111       .  S
C73          H79   1.086       .  S
C73          C74   1.373       .  D
C74         C571   1.455       .  S
C75          H80   1.087       .  S
C75          C76   1.365   1_565  D
C76         C541   1.447       .  S
O81          C96   1.261       .  A
O81         Al89   1.919   1_554  S
C82          O92   1.261       .  A
C82          O83   1.261       .  A
C82         C513   1.477       .  S
O83        Al757   1.905       .  S
O84          C86   1.258       .  A
O84        Al757   1.899       .  S
Al85         O93   1.909       .  S
Al85         O95   1.909       .  S
Al85        O755   1.905   1_554  S
Al85        O756   1.899   1_554  S
Al85         O94   1.796       .  S
C86          O99   1.263       .  A
C86         C544   1.446       .  S
O87          C97   1.265       .  A
O87        Al761   1.939       .  S
O88         C101   1.259       .  A
O88         Al98   1.882       .  S
Al89        O102   1.925   1_556  S
Al89        O759   1.939       .  S
Al89        O771   1.930       .  S
Al89         O94   1.801   1_556  S
O90          C97   1.255       .  A
O90        Al770   1.867       .  S
O91         C100   1.255       .  A
O91         Al98   1.878       .  S
O92        Al770   1.895       .  S
O93         C100   1.261       .  A
O94         Al98   1.782       .  S
O95          C96   1.260       .  A
C96         C519   1.447       .  S
C97         C522   1.482       .  S
Al98        O762   1.867   1_554  S
Al98        O764   1.894   1_554  S
O99        Al761   1.930       .  S
C100        C500   1.465       .  S
C101        O102   1.263       .  A
C101        C535   1.469       .  S
O103        C118   1.264       .  A
O103       Al111   1.918       .  S
C104        O114   1.263       .  A
C104        O105   1.263       .  A
C104        C458   1.476       .  S
O105       Al107   1.909       .  S
O106        C108   1.259       .  A
O106       Al107   1.901       .  S
Al107       O115   1.914       .  S
Al107       O117   1.919       .  S
Al107       O116   1.791       .  S
C108        O121   1.260       .  A
C108        C542   1.441       .  S
O109        C119   1.263       .  A
O109       Al111   1.927       .  S
O110        C123   1.257       .  A
O110       Al120   1.877       .  S
Al111       O124   1.932       .  S
Al111       O121   1.917       .  S
Al111       O116   1.794       .  S
O112        C119   1.257       .  A
O112       Al120   1.894       .  S
O113        C122   1.254       .  A
O113       Al120   1.878       .  S
O114       Al120   1.899       .  S
O115        C122   1.262       .  A
O116       Al120   1.779       .  S
O117        C118   1.262       .  A
C118        C478   1.449       .  S
C119        C490   1.469       .  S
C122        C471   1.465       .  S
C123        O124   1.263       .  A
C123        C483   1.462       .  S
C125        C126   1.549       .  S
C125        C131   1.546       .  S
C125        C129   1.537       .  S
C125        C493   1.536       .  S
C126        H133   1.079       .  S
C126        C127   1.372       .  D
C127        C128   1.536       .  S
C127        C438   1.499       .  S
C128        C132   1.525       .  S
C128        C130   1.544       .  S
C128        H134   1.107       .  S
C129        H135   1.086       .  S
C129        C130   1.366       .  D
C130        C525   1.486       .  S
C131        H136   1.086       .  S
C131        C132   1.364       .  D
C132        C448   1.478       .  S
C137        C138   1.543       .  S
C137        C143   1.545       .  S
C137        C141   1.535       .  S
C137        C480   1.529       .  S
C138        H145   1.086       .  S
C138        C139   1.364       .  D
C139        C140   1.525       .  S
C139        C418   1.471       .  S
C140        C144   1.537       .  S
C140        C142   1.541       .  S
C140        H146   1.106       .  S
C141        H147   1.085       .  S
C141        C142   1.369       .  D
C142        C532   1.488       .  S
C143        H148   1.082       .  S
C143        C144   1.366       .  D
C144        C428   1.491       .  S
C149        C150   1.540   1_545  S
C149        C155   1.523   1_545  S
C149        C153   1.535       .  S
C149        C546   1.477       .  S
C150        H157   1.086       .  S
C150        C151   1.370       .  D
C151        C152   1.544       .  S
C151        C570   1.456       .  S
C152        C156   1.553       .  S
C152        C154   1.549   1_565  S
C152        H158   1.111   1_655  S
C153        H159   1.086       .  S
C153        C154   1.367       .  D
C154        C477   1.455   1_655  S
C155        H160   1.088       .  S
C155        C156   1.358       .  D
C156        C520   1.452   1_655  S
O161        C176   1.260       .  A
O161       Al169   1.912       .  S
C162        O172   1.262       .  A
C162        O163   1.262       .  A
C162        C421   1.472       .  S
O163       Al165   1.901       .  S
O164        C166   1.257       .  A
O164       Al165   1.894       .  S
Al165       O173   1.910       .  S
Al165       O175   1.911       .  S
Al165       O174   1.789       .  S
C166        O179   1.265       .  A
C166        C393   1.445       .  S
O167        C177   1.263       .  A
O167       Al169   1.925       .  S
O168        C181   1.260       .  A
O168       Al178   1.879       .  S
Al169       O182   1.933       .  S
Al169       O179   1.934       .  S
Al169       O174   1.795       .  S
O170        C177   1.257       .  A
O170       Al178   1.882       .  S
O171        C180   1.256       .  A
O171       Al178   1.890       .  S
O172       Al178   1.899       .  S
O173        C180   1.261       .  A
O174       Al178   1.779       .  S
O175        C176   1.260       .  A
C176        C395   1.444       .  S
C177        C408   1.480       .  S
C180        C451   1.468       .  S
C181        O182   1.267       .  A
C181        C398   1.478       .  S
O183        C198   1.263       .  A
O183       Al863   1.908       .  S
C184        O194   1.262       .  A
C184        O185   1.265       .  A
C184        C431   1.469       .  S
O185       Al859   1.914       .  S
O186        C188   1.255       .  A
O186       Al859   1.890       .  S
Al187       O195   1.910       .  S
Al187       O197   1.924       .  S
Al187       O857   1.914       .  S
Al187       O858   1.890       .  S
Al187       O196   1.787       .  S
C188        O201   1.262       .  A
C188        C372   1.442       .  S
O189        C199   1.262       .  A
O189       Al191   1.920       .  S
O190        C203   1.257       .  A
O190       Al200   1.872       .  S
Al191       O201   1.927       .  S
Al191       O855   1.908   1_554  S
Al191       O876   1.946   1_554  S
Al191       O868   1.794       .  S
O192        C199   1.259       .  A
O192       Al872   1.902   1_554  S
O193        C202   1.254       .  A
O193       Al200   1.883       .  S
O194       Al872   1.887   1_554  S
O195        C202   1.260       .  A
O196       Al200   1.777       .  S
O196       Al863   1.794       .  S
O197        C198   1.265       .  A
C198        C369   1.445       .  S
C199        C387   1.466       .  S
Al200       O864   1.902       .  S
Al200       O866   1.887       .  S
C202        C441   1.469       .  S
C203        O204   1.266       .  A
C203        C377   1.463       .  S
O204       Al863   1.946       .  S
C205        C206   1.545       .  S
C205        C211   1.544       .  S
C205        C209   1.534       .  S
C205        C374   1.529       .  S
C206        H213   1.086       .  S
C206        C207   1.363   1_545  D
C207        C208   1.526       .  S
C207        C510   1.472       .  S
C208        C212   1.537   1_565  S
C208        C210   1.543       .  S
C208        H214   1.107       .  S
C209        H215   1.085       .  S
C209        C210   1.370   1_545  D
C210        C401   1.489       .  S
C211        H216   1.080       .  S
C211        C212   1.365       .  D
C212        C461   1.489       .  S
C217        C218   1.552       .  S
C217        C223   1.547       .  S
C217        C221   1.537       .  S
C217        C384   1.532       .  S
C218        H225   1.081       .  S
C218        C219   1.373       .  D
C219        C220   1.532   1_545  S
C219        C468   1.495       .  S
C220        C224   1.522       .  S
C220        C222   1.539       .  S
C220        H226   1.107       .  S
C221        H227   1.086       .  S
C221        C222   1.365   1_545  D
C222        C411   1.483       .  S
C223        H228   1.086       .  S
C223        C224   1.363   1_545  D
C224        C503   1.473       .  S
C229        C230   1.540       .  S
C229        C235   1.525       .  S
C229        C233   1.538       .  S
C229        C396   1.478       .  S
C230        H237   1.086       .  S
C230        C231   1.369       .  D
C231        C232   1.540       .  S
C231        C370   1.451       .  S
C232        C236   1.550       .  S
C232        C234   1.546       .  S
C232        H238   1.111       .  S
C233        H239   1.086       .  S
C233        C234   1.369       .  D
C234        C368   1.455       .  S
C235        H240   1.088       .  S
C235        C236   1.358       .  D
C236        C366   1.452       .  S
C241        C242   1.545       .  S
C241        C247   1.543       .  S
C241        C245   1.535       .  S
C241        C356   1.526       .  S
C242        H249   1.087       .  S
C242        C243   1.360   1_565  D
C243        C244   1.521       .  S
C243        C553   1.463       .  S
C244        C248   1.535   1_545  S
C244        C246   1.542       .  S
C244        H250   1.110       .  S
C245        H251   1.086       .  S
C245        C246   1.369   1_565  D
C246        C346   1.481       .  S
C247        H252   1.080       .  S
C247        C248   1.363       .  D
C248        C577   1.484       .  S
O253        C268   1.262       .  A
O253       Al261   1.918       .  S
C254        O264   1.262       .  A
C254        O255   1.263       .  A
C254        C647   1.464       .  S
O255       Al257   1.917       .  S
O256        C258   1.257       .  A
O256       Al257   1.884       .  S
Al257       O265   1.911       .  S
Al257       O267   1.916       .  S
Al257       O266   1.783       .  S
C258        O271   1.265       .  A
C258        C334   1.436       .  S
O259        C269   1.259       .  A
O259       Al261   1.911       .  S
O260        C273   1.260       .  A
O260       Al270   1.876       .  S
Al261       O274   1.939       .  S
Al261       O271   1.930       .  S
Al261       O266   1.789       .  S
O262        C269   1.258       .  A
O262       Al270   1.902       .  S
O263        C272   1.258       .  A
O263       Al270   1.896       .  S
O264       Al270   1.887       .  S
O265        C272   1.262       .  A
O266       Al270   1.777       .  S
O267        C268   1.261       .  A
C268        C365   1.447       .  S
C269        C336   1.463       .  S
C272        C597   1.466       .  S
C273        O274   1.268       .  A
C273        C349   1.474       .  S
C275        C276   1.545       .  S
C275        C281   1.546       .  S
C275        C279   1.530       .  S
C275        C339   1.531       .  S
C276        H283   1.081       .  S
C276        C277   1.368       .  D
C277        C278   1.534   1_545  S
C277        C563   1.491       .  S
C278        C282   1.528       .  S
C278        C280   1.552       .  S
C278        H284   1.108       .  S
C279        H285   1.085       .  S
C279        C280   1.368   1_545  D
C280        C324   1.493       .  S
C281        H286   1.086       .  S
C281        C282   1.364   1_545  D
C282        C587   1.477       .  S
O287        C302   1.262       .  A
O287       Al967   1.918       .  S
C288        O298   1.263       .  A
C288        O289   1.263       .  A
C288        C637   1.479       .  S
O289       Al963   1.900       .  S
O290        C292   1.258       .  A
O290       Al963   1.900       .  S
Al291       O299   1.922       .  S
Al291       O301   1.911       .  S
Al291       O961   1.900       .  S
Al291       O962   1.900       .  S
Al291       O300   1.797       .  S
C292        O305   1.259       .  A
C292        C322   1.442       .  S
O293        C303   1.263       .  A
O293       Al295   1.930       .  S
O294        C307   1.259       .  A
O294       Al304   1.883       .  S
Al295       O305   1.915       .  S
Al295       O959   1.918   1_554  S
Al295       O980   1.918   1_554  S
Al295       O972   1.804       .  S
O296        C303   1.253       .  A
O296       Al976   1.872       .  S
O297        C306   1.250       .  A
O297       Al304   1.864       .  S
O298       Al976   1.904       .  S
O299        C306   1.261       .  A
O300       Al304   1.785       .  S
O300       Al967   1.804       .  S
O301        C302   1.260       .  A
C302        C367   1.449       .  S
C303        C327   1.473       .  S
Al304       O968   1.872       .  S
Al304       O970   1.904       .  S
C306        C607   1.466       .  S
C307        O308   1.261       .  A
C307        C359   1.462       .  S
O308       Al967   1.918       .  S
C309        C310   1.522       .  S
C309        C315   1.535       .  S
C309        C313   1.536       .  S
C309        C333   1.469       .  S
C310        H317   1.088       .  S
C310        C311   1.357       .  D
C311        C312   1.550       .  S
C311        C394   1.449       .  S
C312        C316   1.543       .  S
C312        C314   1.543       .  S
C312        H318   1.111       .  S
C313        H319   1.086       .  S
C313        C314   1.368       .  D
C314        C371   1.448       .  S
C315        H320   1.087       .  S
C315        C316   1.367       .  D
C316        C321   1.448       .  S
C321        C322   1.210       .  T
C323        C324   1.412       .  A
C323        C328   1.405       .  A
C323        H329   1.082       .  S
C324        C325   1.403       .  A
C325        C326   1.395       .  A
C325        H330   1.081       .  S
C326        C327   1.404       .  A
C326        H331   1.084       .  S
C327        C328   1.401       .  A
C328        H332   1.083       .  S
C333        C334   1.207       .  T
C335        C336   1.398       .  A
C335        C340   1.398       .  A
C335        H341   1.084       .  S
C336        C337   1.400       .  A
C337        C338   1.398       .  A
C337        H342   1.084       .  S
C338        C339   1.410       .  A
C338        H343   1.083       .  S
C339        C340   1.413       .  A
C340        H344   1.079       .  S
C345        C346   1.405       .  A
C345        C350   1.402       .  A
C345        H351   1.083       .  S
C346        C347   1.403       .  A
C347        C348   1.391       .  A
C347        H352   1.080       .  S
C348        C349   1.402       .  A
C348        H353   1.084       .  S
C349        C350   1.406       .  A
C350        H354   1.083       .  S
C355        C356   1.411       .  A
C355        C360   1.392       .  A
C355        H361   1.078       .  S
C356        C357   1.410       .  A
C357        C358   1.399       .  A
C357        H362   1.084       .  S
C358        C359   1.400       .  A
C358        H363   1.083       .  S
C359        C360   1.397       .  A
C360        H364   1.084       .  S
C365        C366   1.213       .  T
C367        C368   1.214       .  T
C369        C370   1.212       .  T
C371        C372   1.210       .  T
C373        C374   1.411       .  A
C373        C378   1.393       .  A
C373        H379   1.078       .  S
C374        C375   1.411       .  A
C375        C376   1.400       .  A
C375        H380   1.083       .  S
C376        C377   1.401       .  A
C376        H381   1.084       .  S
C377        C378   1.398       .  A
C378        H382   1.084       .  S
C383        C384   1.409       .  A
C383        C388   1.398       .  A
C383        H389   1.083       .  S
C384        C385   1.412       .  A
C385        C386   1.400       .  A
C385        H390   1.079       .  S
C386        C387   1.399       .  A
C386        H391   1.084       .  S
C387        C388   1.401       .  A
C388        H392   1.084       .  S
C393        C394   1.211       .  T
C395        C396   1.211       .  T
C397        C398   1.405       .  A
C397        C402   1.401       .  A
C397        H403   1.083       .  S
C398        C399   1.403       .  A
C399        C400   1.392       .  A
C399        H404   1.083       .  S
C400        C401   1.404       .  A
C400        H405   1.077       .  S
C401        C402   1.408       .  A
C402        H406   1.082       .  S
C407        C408   1.405       .  A
C407        C412   1.385       .  A
C407        H413   1.083       .  S
C408        C409   1.407       .  A
C409        C410   1.409       .  A
C409        H414   1.083       .  S
C410        C411   1.409       .  A
C410        H415   1.083       .  S
C411        C412   1.398       .  A
C412        H416   1.081       .  S
C417        C418   1.400       .  A
C417        C422   1.390       .  A
C417        H423   1.082       .  S
C418        C419   1.403       .  A
C419        C420   1.399       .  A
C419        H424   1.084       .  S
C420        C421   1.405       .  A
C420        H425   1.082       .  S
C421        C422   1.406       .  A
C422        H426   1.084       .  S
C427        C428   1.408       .  A
C427        C432   1.395       .  A
C427        H433   1.081       .  S
C428        C429   1.409       .  A
C429        C430   1.396       .  A
C429        H434   1.081       .  S
C430        C431   1.401       .  A
C430        H435   1.083       .  S
C431        C432   1.402       .  A
C432        H436   1.083       .  S
C437        C438   1.409       .  A
C437        C442   1.393       .  A
C437        H443   1.081       .  S
C438        C439   1.411       .  A
C439        C440   1.401       .  A
C439        H444   1.079       .  S
C440        C441   1.400       .  A
C440        H445   1.084       .  S
C441        C442   1.400       .  A
C442        H446   1.083       .  S
C447        C448   1.402       .  A
C447        C452   1.396       .  A
C447        H453   1.083       .  S
C448        C449   1.405       .  A
C449        C450   1.400       .  A
C449        H454   1.083       .  S
C450        C451   1.402       .  A
C450        H455   1.083       .  S
C451        C452   1.404       .  A
C452        H456   1.084       .  S
C457        C458   1.407       .  A
C457        C462   1.397       .  A
C457        H463   1.083       .  S
C458        C459   1.401       .  A
C459        C460   1.396       .  A
C459        H464   1.083       .  S
C460        C461   1.410       .  A
C460        H465   1.081       .  S
C461        C462   1.404       .  A
C462        H466   1.082   1_545  S
C467        C468   1.410       .  A
C467        C472   1.397       .  A
C467        H473   1.079   1_545  S
C468        C469   1.408       .  A
C469        C470   1.396       .  A
C469        H474   1.081       .  S
C470        C471   1.402       .  A
C470        H475   1.084       .  S
C471        C472   1.397       .  A
C472        H476   1.083       .  S
C477        C478   1.214       .  T
C479        C480   1.410       .  A
C479        C484   1.399       .  A
C479        H485   1.082       .  S
C480        C481   1.410       .  A
C481        C482   1.394       .  A
C481        H486   1.081       .  S
C482        C483   1.398       .  A
C482        H487   1.083       .  S
C483        C484   1.401       .  A
C484        H488   1.084       .  S
C489        C490   1.402       .  A
C489        C494   1.400       .  A
C489        H495   1.083       .  S
C490        C491   1.399       .  A
C491        C492   1.401       .  A
C491        H496   1.084       .  S
C492        C493   1.414       .  A
C492        H497   1.077       .  S
C493        C494   1.409       .  A
C494        H498   1.084       .  S
C499        C500   1.404       .  A
C499        C504   1.394       .  A
C499        H505   1.084       .  S
C500        C501   1.402       .  A
C501        C502   1.399   1_565  A
C501        H506   1.083   1_565  S
C502        C503   1.404   1_545  A
C502        H507   1.083       .  S
C503        C504   1.401       .  A
C504        H508   1.083       .  S
C509        C510   1.400   1_545  A
C509        C514   1.396   1_545  A
C509        H515   1.083       .  S
C510        C511   1.401       .  A
C511        C512   1.396       .  A
C511        H516   1.079       .  S
C512        C513   1.405       .  A
C512        H517   1.083       .  S
C513        C514   1.408       .  A
C514        H518   1.083   1_565  S
C519        C520   1.213       .  T
C521        C522   1.407       .  A
C521        C526   1.386       .  A
C521        H527   1.084       .  S
C522        C523   1.406       .  A
C523        C524   1.412       .  A
C523        H528   1.082       .  S
C524        C525   1.411       .  A
C524        H529   1.083       .  S
C525        C526   1.397       .  A
C526        H530   1.081       .  S
C531        C532   1.404       .  A
C531        C536   1.391       .  A
C531        H537   1.082       .  S
C532        C533   1.410       .  A
C533        C534   1.404       .  A
C533        H538   1.082       .  S
C534        C535   1.402       .  A
C534        H539   1.083       .  S
C535        C536   1.400       .  A
C536        H540   1.084       .  S
C541        C542   1.209       .  T
C543        C544   1.213       .  T
C545        C546   1.211       .  T
C547        C548   1.212       .  T
C549        C550   1.405       .  A
C549        C554   1.397       .  A
C549        H555   1.082       .  S
C550        C551   1.407       .  A
C551        C552   1.391       .  A
C551        H556   1.084       .  S
C552        C553   1.398       .  A
C552        H557   1.083   1_545  S
C553        C554   1.400       .  A
C554        H558   1.082       .  S
C559        C560   1.402       .  A
C559        C564   1.402       .  A
C559        H565   1.082   1_545  S
C560        C561   1.400       .  A
C561        C562   1.393       .  A
C561        H566   1.085       .  S
C562        C563   1.408       .  A
C562        H567   1.081       .  S
C563        C564   1.407       .  A
C564        H568   1.083   1_545  S
C569        C570   1.214       .  T
C571        C572   1.214       .  T
C573        C574   1.401       .  A
C573        C578   1.393       .  A
C573        H579   1.083       .  S
C574        C575   1.407       .  A
C575        C576   1.398       .  A
C575        H580   1.084       .  S
C576        C577   1.402       .  A
C576        H581   1.082   1_565  S
C577        C578   1.409       .  A
C578        H582   1.083       .  S
C583        C584   1.400       .  A
C583        C588   1.400       .  A
C583        H589   1.083       .  S
C584        C585   1.409       .  A
C585        C586   1.394       .  A
C585        H590   1.083       .  S
C586        C587   1.398       .  A
C586        H591   1.083       .  S
C587        C588   1.408       .  A
C588        H592   1.081       .  S
C593        C594   1.399       .  A
C593        C598   1.394       .  A
C593        H599   1.082       .  S
C594        C595   1.408       .  A
C595        C596   1.398       .  A
C595        H600   1.083       .  S
C596        C597   1.399       .  A
C596        H601   1.082       .  S
C597        C598   1.406       .  A
C598        H602   1.085       .  S
C603        C604   1.410       .  A
C603        C608   1.401       .  A
C603        H609   1.079       .  S
C604        C605   1.407       .  A
C605        C606   1.395       .  A
C605        H610   1.081       .  S
C606        C607   1.402       .  A
C606        H611   1.084       .  S
C607        C608   1.400       .  A
C608        H612   1.083       .  S
C613        C614   1.410       .  A
C613        C618   1.399       .  A
C613        H619   1.083       .  S
C614        C615   1.412       .  A
C615        C616   1.400       .  A
C615        H620   1.078       .  S
C616        C617   1.399       .  A
C616        H621   1.084       .  S
C617        C618   1.400       .  A
C618        H622   1.083       .  S
C623        C624   1.411       .  A
C623        C628   1.412       .  A
C623        H629   1.082       .  S
C624        C625   1.397       .  A
C625        C626   1.387       .  A
C625        H630   1.080       .  S
C626        C627   1.409       .  A
C626        H631   1.083       .  S
C627        C628   1.407       .  A
C628        H632   1.083       .  S
C633        C634   1.403       .  A
C633        C638   1.400       .  A
C633        H639   1.085       .  S
C634        C635   1.401       .  A
C635        C636   1.393       .  A
C635        H640   1.083       .  S
C636        C637   1.407       .  A
C636        H641   1.084       .  S
C637        C638   1.405       .  A
C638        H642   1.082       .  S
C643        C644   1.406       .  A
C643        C648   1.390       .  A
C643        H649   1.082       .  S
C644        C645   1.407       .  A
C645        C646   1.400       .  A
C645        H650   1.082       .  S
C646        C647   1.402       .  A
C646        H651   1.083       .  S
C647        C648   1.399       .  A
C648        H652   1.084       .  S
C653        C654   1.404       .  A
C653        C658   1.390       .  A
C653        H659   1.083       .  S
C654        C655   1.406       .  A
C655        C656   1.406       .  A
C655        H660   1.084       .  S
C656        C657   1.409       .  A
C656        H661   1.082       .  S
C657        C658   1.400       .  A
C658        H662   1.085       .  S
C663        C664   1.409       .  A
C663        C668   1.399       .  A
C663        H669   1.083       .  S
C664        C665   1.413       .  A
C665        C666   1.394       .  A
C665        H670   1.079       .  S
C666        C667   1.396       .  A
C666        H671   1.083       .  S
C667        C668   1.402       .  A
C668        H672   1.084       .  S
C673        C674   1.543       .  S
C673        C679   1.537       .  S
C673        C677   1.534       .  S
C673       C1336   1.529       .  S
C674        H681   1.086       .  S
C674        C675   1.366       .  D
C675        C676   1.531       .  S
C675       C1306   1.480       .  S
C676        C680   1.538       .  S
C676        C678   1.547       .  S
C676        H682   1.109       .  S
C677        H683   1.086       .  S
C677        C678   1.370       .  D
C678       C1329   1.488       .  S
C679        H684   1.081       .  S
C679        C680   1.363       .  D
C680       C1316   1.486       .  S
C685        C686   1.553       .  S
C685        C691   1.544       .  S
C685        C689   1.537       .  S
C685       C1286   1.533       .  S
C686        H693   1.081       .  S
C686        C687   1.372       .  D
C687        C688   1.531       .  S
C687       C1276   1.495       .  S
C688        C692   1.526       .  S
C688        C690   1.545       .  S
C688        H694   1.108       .  S
C689        H695   1.086       .  S
C689        C690   1.367       .  D
C690       C1296   1.487       .  S
C691        H696   1.087       .  S
C691        C692   1.363       .  D
C692       C1266   1.476       .  S
O697        C712   1.260       .  A
O697       Al705   1.914       .  S
C698        O708   1.262       .  A
C698        O699   1.265       .  A
C698       C1246   1.473       .  S
O699       Al701   1.924       .  S
O700        C702   1.261       .  A
O700       Al701   1.899       .  S
Al701       O709   1.923       .  S
Al701       O711   1.920       .  S
Al701       O710   1.786       .  S
C702        O715   1.267       .  A
C702       C1244   1.448       .  S
O703        C713   1.258       .  A
O703       Al705   1.915       .  S
O704        C717   1.260       .  A
O704       Al714   1.869       .  S
Al705       O718   1.953       .  S
Al705       O715   1.936       .  S
Al705       O710   1.789       .  S
O706        C713   1.255       .  A
O706       Al714   1.894       .  S
O707        C716   1.258       .  A
O707       Al714   1.896       .  S
O708       Al714   1.891       .  S
O709        C716   1.265       .  A
O710       Al714   1.776       .  S
O711        C712   1.261       .  A
C712       C1241   1.450       .  S
C713       C1289   1.466       .  S
C716       C1256   1.474       .  S
C717        O718   1.271       .  A
C717       C1326   1.480       .  S
O719        C734   1.263       .  A
C720        O730   1.264       .  A
C720        O721   1.263       .  A
C720       C1222   1.472       .  S
O722        C724   1.257       .  A
Al723       O731   1.917       .  S
Al723       O733   1.900       .  S
Al723       O732   1.795       .  S
C724        O737   1.261       .  A
C724       C1219   1.445       .  S
O725        C735   1.266       .  A
O725       Al727   1.942       .  S
O726        C739   1.260       .  A
O726       Al736   1.888       .  S
Al727       O737   1.921       .  S
O728        C735   1.255       .  A
O729        C738   1.250       .  A
O729       Al736   1.870       .  S
O731        C738   1.258       .  A
O732       Al736   1.781       .  S
O733        C734   1.259       .  A
C734       C1217   1.443       .  S
C735       C1299   1.487       .  S
C738       C1232   1.465       .  S
C739        O740   1.263       .  A
C739       C1339   1.463       .  S
C741        C742   1.525   1_455  S
C741        C747   1.534       .  S
C741        C745   1.544   1_455  S
C741       C1215   1.479       .  S
C742        H749   1.088       .  S
C742        C743   1.358   1_565  D
C743        C744   1.549       .  S
C743       C1220   1.450       .  S
C744        C748   1.542   1_655  S
C744        C746   1.540   1_545  S
C744        H750   1.111       .  S
C745        H751   1.086       .  S
C745        C746   1.373       .  D
C746       C1243   1.455       .  S
C747        H752   1.087       .  S
C747        C748   1.365   1_565  D
C748       C1213   1.447       .  S
O753        C768   1.261       .  A
O753       Al761   1.919       .  S
C754        O764   1.261       .  A
C754        O755   1.261       .  A
C754       C1185   1.477       .  S
O756        C758   1.258       .  A
Al757       O765   1.909       .  S
Al757       O767   1.909       .  S
Al757       O766   1.796       .  S
C758        O771   1.263       .  A
C758       C1216   1.446       .  S
O759        C769   1.265       .  A
O760        C773   1.259       .  A
O760       Al770   1.882       .  S
Al761       O774   1.925       .  S
Al761       O766   1.801       .  S
O762        C769   1.255       .  A
O763        C772   1.255       .  A
O763       Al770   1.878       .  S
O765        C772   1.261       .  A
O766       Al770   1.782       .  S
O767        C768   1.260       .  A
C768       C1191   1.447       .  S
C769       C1194   1.482       .  S
C772       C1172   1.465       .  S
C773        O774   1.263       .  A
C773       C1207   1.469       .  S
O775        C790   1.264       .  A
O775       Al783   1.918       .  S
C776        O786   1.263       .  A
C776        O777   1.263       .  A
C776       C1130   1.476       .  S
O777       Al779   1.909       .  S
O778        C780   1.259       .  A
O778       Al779   1.901       .  S
Al779       O787   1.914       .  S
Al779       O789   1.919       .  S
Al779       O788   1.791       .  S
C780        O793   1.260       .  A
C780       C1214   1.441       .  S
O781        C791   1.263       .  A
O781       Al783   1.927       .  S
O782        C795   1.257       .  A
O782       Al792   1.877       .  S
Al783       O796   1.932       .  S
Al783       O793   1.917       .  S
Al783       O788   1.794       .  S
O784        C791   1.257       .  A
O784       Al792   1.894       .  S
O785        C794   1.254       .  A
O785       Al792   1.878       .  S
O786       Al792   1.899       .  S
O787        C794   1.262       .  A
O788       Al792   1.779       .  S
O789        C790   1.262       .  A
C790       C1150   1.449       .  S
C791       C1162   1.469       .  S
C794       C1143   1.465       .  S
C795        O796   1.263       .  A
C795       C1155   1.462       .  S
C797        C798   1.549       .  S
C797        C803   1.546       .  S
C797        C801   1.537       .  S
C797       C1165   1.536       .  S
C798        H805   1.079       .  S
C798        C799   1.372       .  D
C799        C800   1.536       .  S
C799       C1110   1.499       .  S
C800        C804   1.525       .  S
C800        C802   1.544       .  S
C800        H806   1.107       .  S
C801        H807   1.086       .  S
C801        C802   1.366       .  D
C802       C1197   1.486       .  S
C803        H808   1.086       .  S
C803        C804   1.364       .  D
C804       C1120   1.478       .  S
C809        C810   1.543       .  S
C809        C815   1.545       .  S
C809        C813   1.535       .  S
C809       C1152   1.529       .  S
C810        H817   1.086       .  S
C810        C811   1.364       .  D
C811        C812   1.525       .  S
C811       C1090   1.471       .  S
C812        C816   1.537       .  S
C812        C814   1.541       .  S
C812        H818   1.106       .  S
C813        H819   1.085       .  S
C813        C814   1.369       .  D
C814       C1204   1.487       .  S
C815        H820   1.082       .  S
C815        C816   1.366       .  D
C816       C1100   1.491       .  S
C821        C822   1.540   1_545  S
C821        C827   1.523   1_545  S
C821        C825   1.535       .  S
C821       C1218   1.477       .  S
C822        H829   1.086       .  S
C822        C823   1.370       .  D
C823        C824   1.544       .  S
C823       C1242   1.456       .  S
C824        C828   1.553       .  S
C824        C826   1.549   1_565  S
C824        H830   1.111   1_655  S
C825        H831   1.086       .  S
C825        C826   1.367       .  D
C826       C1149   1.455   1_655  S
C827        H832   1.088       .  S
C827        C828   1.358       .  D
C828       C1192   1.452   1_655  S
O833        C848   1.260       .  A
O833       Al841   1.912       .  S
C834        O844   1.262       .  A
C834        O835   1.262       .  A
C834       C1093   1.472       .  S
O835       Al837   1.901       .  S
O836        C838   1.257       .  A
O836       Al837   1.894       .  S
Al837       O845   1.910       .  S
Al837       O847   1.911       .  S
Al837       O846   1.789       .  S
C838        O851   1.265       .  A
C838       C1065   1.445       .  S
O839        C849   1.263       .  A
O839       Al841   1.925       .  S
O840        C853   1.260       .  A
O840       Al850   1.879       .  S
Al841       O854   1.933       .  S
Al841       O851   1.933       .  S
Al841       O846   1.795       .  S
O842        C849   1.257       .  A
O842       Al850   1.882       .  S
O843        C852   1.256       .  A
O843       Al850   1.890       .  S
O844       Al850   1.899       .  S
O845        C852   1.261       .  A
O846       Al850   1.779       .  S
O847        C848   1.260       .  A
C848       C1067   1.444       .  S
C849       C1080   1.480       .  S
C852       C1123   1.468       .  S
C853        O854   1.267       .  A
C853       C1070   1.478       .  S
O855        C870   1.263       .  A
C856        O866   1.262       .  A
C856        O857   1.265       .  A
C856       C1103   1.469       .  S
O858        C860   1.255       .  A
Al859       O867   1.910   1_554  S
Al859       O869   1.924   1_554  S
Al859       O868   1.787       .  S
C860        O873   1.262       .  A
C860       C1044   1.442       .  S
O861        C871   1.262       .  A
O861       Al863   1.920       .  S
O862        C875   1.257       .  A
O862       Al872   1.872       .  S
Al863       O873   1.927       .  S
O864        C871   1.259       .  A
O865        C874   1.254       .  A
O865       Al872   1.883       .  S
O867        C874   1.260       .  A
O868       Al872   1.777   1_554  S
O869        C870   1.265       .  A
C870       C1041   1.445       .  S
C871       C1059   1.466       .  S
C874       C1113   1.469       .  S
C875        O876   1.266       .  A
C875       C1049   1.463       .  S
C877        C878   1.545       .  S
C877        C883   1.544       .  S
C877        C881   1.534       .  S
C877       C1046   1.529       .  S
C878        H885   1.086       .  S
C878        C879   1.363   1_545  D
C879        C880   1.526       .  S
C879       C1182   1.472       .  S
C880        C884   1.537   1_565  S
C880        C882   1.543       .  S
C880        H886   1.107       .  S
C881        H887   1.085       .  S
C881        C882   1.370   1_545  D
C882       C1073   1.489       .  S
C883        H888   1.080       .  S
C883        C884   1.365       .  D
C884       C1133   1.489       .  S
C889        C890   1.552       .  S
C889        C895   1.547       .  S
C889        C893   1.537       .  S
C889       C1056   1.532       .  S
C890        H897   1.081       .  S
C890        C891   1.373       .  D
C891        C892   1.532   1_545  S
C891       C1140   1.495       .  S
C892        C896   1.522       .  S
C892        C894   1.539       .  S
C892        H898   1.107       .  S
C893        H899   1.086       .  S
C893        C894   1.365   1_545  D
C894       C1083   1.483       .  S
C895        H900   1.086       .  S
C895        C896   1.363   1_545  D
C896       C1175   1.473       .  S
C901        C902   1.540       .  S
C901        C907   1.525       .  S
C901        C905   1.538       .  S
C901       C1068   1.478       .  S
C902        H909   1.086       .  S
C902        C903   1.369       .  D
C903        C904   1.540       .  S
C903       C1042   1.451       .  S
C904        C908   1.550       .  S
C904        C906   1.546       .  S
C904        H910   1.111       .  S
C905        H911   1.086       .  S
C905        C906   1.369       .  D
C906       C1040   1.455       .  S
C907        H912   1.088       .  S
C907        C908   1.358       .  D
C908       C1038   1.452       .  S
C913        C914   1.545       .  S
C913        C919   1.543       .  S
C913        C917   1.535       .  S
C913       C1028   1.526       .  S
C914        H921   1.087       .  S
C914        C915   1.360   1_565  D
C915        C916   1.521       .  S
C915       C1225   1.463       .  S
C916        C920   1.535   1_545  S
C916        C918   1.542       .  S
C916        H922   1.110       .  S
C917        H923   1.086       .  S
C917        C918   1.369   1_565  D
C918       C1018   1.481       .  S
C919        H924   1.080       .  S
C919        C920   1.363       .  D
C920       C1249   1.484       .  S
O925        C940   1.262       .  A
O925       Al933   1.918       .  S
C926        O936   1.262       .  A
C926        O927   1.263       .  A
C926       C1319   1.464       .  S
O927       Al929   1.917       .  S
O928        C930   1.257       .  A
O928       Al929   1.884       .  S
Al929       O937   1.911       .  S
Al929       O939   1.916       .  S
Al929       O938   1.783       .  S
C930        O943   1.265       .  A
C930       C1006   1.436       .  S
O931        C941   1.259       .  A
O931       Al933   1.911       .  S
O932        C945   1.260       .  A
O932       Al942   1.876       .  S
Al933       O946   1.939       .  S
Al933       O943   1.930       .  S
Al933       O938   1.789       .  S
O934        C941   1.258       .  A
O934       Al942   1.902       .  S
O935        C944   1.258       .  A
O935       Al942   1.896       .  S
O936       Al942   1.887       .  S
O937        C944   1.262       .  A
O938       Al942   1.777       .  S
O939        C940   1.261       .  A
C940       C1037   1.447       .  S
C941       C1008   1.463       .  S
C944       C1269   1.466       .  S
C945        O946   1.268       .  A
C945       C1021   1.474       .  S
C947        C948   1.545       .  S
C947        C953   1.546       .  S
C947        C951   1.530       .  S
C947       C1011   1.531       .  S
C948        H955   1.081       .  S
C948        C949   1.368       .  D
C949        C950   1.534   1_545  S
C949       C1235   1.491       .  S
C950        C954   1.528       .  S
C950        C952   1.552       .  S
C950        H956   1.108       .  S
C951        H957   1.085       .  S
C951        C952   1.368   1_545  D
C952        C996   1.493       .  S
C953        H958   1.086       .  S
C953        C954   1.364   1_545  D
C954       C1259   1.477       .  S
O959        C974   1.262       .  A
C960        O970   1.263       .  A
C960        O961   1.263       .  A
C960       C1309   1.479       .  S
O962        C964   1.258       .  A
Al963       O971   1.922   1_554  S
Al963       O973   1.911   1_554  S
Al963       O972   1.797       .  S
C964        O977   1.259       .  A
C964        C994   1.442       .  S
O965        C975   1.263       .  A
O965       Al967   1.930       .  S
O966        C979   1.259       .  A
O966       Al976   1.883   1_556  S
Al967       O977   1.915       .  S
O968        C975   1.253       .  A
O969        C978   1.250       .  A
O969       Al976   1.864   1_556  S
O971        C978   1.261       .  A
O972       Al976   1.785       .  S
O973        C974   1.260       .  A
C974       C1039   1.449       .  S
C975        C999   1.473       .  S
C978       C1279   1.466       .  S
C979        O980   1.261       .  A
C979       C1031   1.462       .  S
C981        C982   1.522       .  S
C981        C987   1.535       .  S
C981        C985   1.536       .  S
C981       C1005   1.469       .  S
C982        H989   1.088       .  S
C982        C983   1.357       .  D
C983        C984   1.550       .  S
C983       C1066   1.449       .  S
C984        C988   1.543       .  S
C984        C986   1.543       .  S
C984        H990   1.111       .  S
C985        H991   1.086       .  S
C985        C986   1.368       .  D
C986       C1043   1.448       .  S
C987        H992   1.087       .  S
C987        C988   1.367       .  D
C988        C993   1.448       .  S
C993        C994   1.210       .  T
C995        C996   1.412       .  A
C995       C1000   1.405       .  A
C995       H1001   1.082       .  S
C996        C997   1.403       .  A
C997        C998   1.395       .  A
C997       H1002   1.081       .  S
C998        C999   1.404       .  A
C998       H1003   1.084       .  S
C999       C1000   1.401       .  A
C1000      H1004   1.083       .  S
C1005      C1006   1.207       .  T
C1007      C1008   1.398       .  A
C1007      C1012   1.398       .  A
C1007      H1013   1.084       .  S
C1008      C1009   1.400       .  A
C1009      C1010   1.398       .  A
C1009      H1014   1.084       .  S
C1010      C1011   1.410       .  A
C1010      H1015   1.083       .  S
C1011      C1012   1.413       .  A
C1012      H1016   1.079       .  S
C1017      C1018   1.405       .  A
C1017      C1022   1.402       .  A
C1017      H1023   1.083       .  S
C1018      C1019   1.403       .  A
C1019      C1020   1.391       .  A
C1019      H1024   1.080       .  S
C1020      C1021   1.402       .  A
C1020      H1025   1.084       .  S
C1021      C1022   1.406       .  A
C1022      H1026   1.083       .  S
C1027      C1028   1.411       .  A
C1027      C1032   1.392       .  A
C1027      H1033   1.078       .  S
C1028      C1029   1.410       .  A
C1029      C1030   1.399       .  A
C1029      H1034   1.084       .  S
C1030      C1031   1.400       .  A
C1030      H1035   1.083       .  S
C1031      C1032   1.397       .  A
C1032      H1036   1.084       .  S
C1037      C1038   1.213       .  T
C1039      C1040   1.214       .  T
C1041      C1042   1.212       .  T
C1043      C1044   1.210       .  T
C1045      C1046   1.411       .  A
C1045      C1050   1.393       .  A
C1045      H1051   1.078       .  S
C1046      C1047   1.411       .  A
C1047      C1048   1.400       .  A
C1047      H1052   1.083       .  S
C1048      C1049   1.401       .  A
C1048      H1053   1.084       .  S
C1049      C1050   1.398       .  A
C1050      H1054   1.084       .  S
C1055      C1056   1.409       .  A
C1055      C1060   1.398       .  A
C1055      H1061   1.083       .  S
C1056      C1057   1.412       .  A
C1057      C1058   1.400       .  A
C1057      H1062   1.079       .  S
C1058      C1059   1.399       .  A
C1058      H1063   1.084       .  S
C1059      C1060   1.401       .  A
C1060      H1064   1.084       .  S
C1065      C1066   1.211       .  T
C1067      C1068   1.211       .  T
C1069      C1070   1.405       .  A
C1069      C1074   1.401       .  A
C1069      H1075   1.083       .  S
C1070      C1071   1.403       .  A
C1071      C1072   1.392       .  A
C1071      H1076   1.083       .  S
C1072      C1073   1.404       .  A
C1072      H1077   1.077       .  S
C1073      C1074   1.408       .  A
C1074      H1078   1.082       .  S
C1079      C1080   1.405       .  A
C1079      C1084   1.385       .  A
C1079      H1085   1.083       .  S
C1080      C1081   1.407       .  A
C1081      C1082   1.409       .  A
C1081      H1086   1.083       .  S
C1082      C1083   1.409       .  A
C1082      H1087   1.083       .  S
C1083      C1084   1.398       .  A
C1084      H1088   1.081       .  S
C1089      C1090   1.400       .  A
C1089      C1094   1.390       .  A
C1089      H1095   1.082       .  S
C1090      C1091   1.403       .  A
C1091      C1092   1.399       .  A
C1091      H1096   1.084       .  S
C1092      C1093   1.405       .  A
C1092      H1097   1.082       .  S
C1093      C1094   1.406       .  A
C1094      H1098   1.084       .  S
C1099      C1100   1.408       .  A
C1099      C1104   1.395       .  A
C1099      H1105   1.081       .  S
C1100      C1101   1.409       .  A
C1101      C1102   1.396       .  A
C1101      H1106   1.081       .  S
C1102      C1103   1.401       .  A
C1102      H1107   1.083       .  S
C1103      C1104   1.402       .  A
C1104      H1108   1.083       .  S
C1109      C1110   1.409       .  A
C1109      C1114   1.393       .  A
C1109      H1115   1.081       .  S
C1110      C1111   1.411       .  A
C1111      C1112   1.401       .  A
C1111      H1116   1.079       .  S
C1112      C1113   1.400       .  A
C1112      H1117   1.084       .  S
C1113      C1114   1.400       .  A
C1114      H1118   1.083       .  S
C1119      C1120   1.402       .  A
C1119      C1124   1.396       .  A
C1119      H1125   1.083       .  S
C1120      C1121   1.405       .  A
C1121      C1122   1.400       .  A
C1121      H1126   1.083       .  S
C1122      C1123   1.402       .  A
C1122      H1127   1.083       .  S
C1123      C1124   1.404       .  A
C1124      H1128   1.084       .  S
C1129      C1130   1.407       .  A
C1129      C1134   1.397       .  A
C1129      H1135   1.083       .  S
C1130      C1131   1.401       .  A
C1131      C1132   1.396       .  A
C1131      H1136   1.083       .  S
C1132      C1133   1.410       .  A
C1132      H1137   1.081       .  S
C1133      C1134   1.404       .  A
C1134      H1138   1.082   1_545  S
C1139      C1140   1.410       .  A
C1139      C1144   1.397       .  A
C1139      H1145   1.079   1_545  S
C1140      C1141   1.408       .  A
C1141      C1142   1.396       .  A
C1141      H1146   1.081       .  S
C1142      C1143   1.402       .  A
C1142      H1147   1.084       .  S
C1143      C1144   1.397       .  A
C1144      H1148   1.083       .  S
C1149      C1150   1.214       .  T
C1151      C1152   1.410       .  A
C1151      C1156   1.399       .  A
C1151      H1157   1.082       .  S
C1152      C1153   1.410       .  A
C1153      C1154   1.394       .  A
C1153      H1158   1.081       .  S
C1154      C1155   1.398       .  A
C1154      H1159   1.083       .  S
C1155      C1156   1.401       .  A
C1156      H1160   1.084       .  S
C1161      C1162   1.402       .  A
C1161      C1166   1.400       .  A
C1161      H1167   1.083       .  S
C1162      C1163   1.399       .  A
C1163      C1164   1.401       .  A
C1163      H1168   1.084       .  S
C1164      C1165   1.414       .  A
C1164      H1169   1.077       .  S
C1165      C1166   1.409       .  A
C1166      H1170   1.084       .  S
C1171      C1172   1.404       .  A
C1171      C1176   1.394       .  A
C1171      H1177   1.084       .  S
C1172      C1173   1.402       .  A
C1173      C1174   1.399   1_565  A
C1173      H1178   1.083   1_565  S
C1174      C1175   1.404   1_545  A
C1174      H1179   1.083       .  S
C1175      C1176   1.401       .  A
C1176      H1180   1.083       .  S
C1181      C1182   1.400   1_545  A
C1181      C1186   1.396   1_545  A
C1181      H1187   1.083       .  S
C1182      C1183   1.401       .  A
C1183      C1184   1.396       .  A
C1183      H1188   1.079       .  S
C1184      C1185   1.405       .  A
C1184      H1189   1.083       .  S
C1185      C1186   1.408       .  A
C1186      H1190   1.083   1_565  S
C1191      C1192   1.213       .  T
C1193      C1194   1.407       .  A
C1193      C1198   1.386       .  A
C1193      H1199   1.084       .  S
C1194      C1195   1.406       .  A
C1195      C1196   1.412       .  A
C1195      H1200   1.082       .  S
C1196      C1197   1.411       .  A
C1196      H1201   1.083       .  S
C1197      C1198   1.397       .  A
C1198      H1202   1.081       .  S
C1203      C1204   1.404       .  A
C1203      C1208   1.391       .  A
C1203      H1209   1.082       .  S
C1204      C1205   1.410       .  A
C1205      C1206   1.404       .  A
C1205      H1210   1.082       .  S
C1206      C1207   1.402       .  A
C1206      H1211   1.083       .  S
C1207      C1208   1.400       .  A
C1208      H1212   1.084       .  S
C1213      C1214   1.209       .  T
C1215      C1216   1.213       .  T
C1217      C1218   1.211       .  T
C1219      C1220   1.212       .  T
C1221      C1222   1.405       .  A
C1221      C1226   1.397       .  A
C1221      H1227   1.082       .  S
C1222      C1223   1.407       .  A
C1223      C1224   1.391       .  A
C1223      H1228   1.084       .  S
C1224      C1225   1.398       .  A
C1224      H1229   1.083   1_545  S
C1225      C1226   1.400       .  A
C1226      H1230   1.082       .  S
C1231      C1232   1.402       .  A
C1231      C1236   1.402       .  A
C1231      H1237   1.082   1_545  S
C1232      C1233   1.400       .  A
C1233      C1234   1.393       .  A
C1233      H1238   1.085       .  S
C1234      C1235   1.408       .  A
C1234      H1239   1.081       .  S
C1235      C1236   1.407       .  A
C1236      H1240   1.083   1_545  S
C1241      C1242   1.214       .  T
C1243      C1244   1.214       .  T
C1245      C1246   1.401       .  A
C1245      C1250   1.393       .  A
C1245      H1251   1.083       .  S
C1246      C1247   1.407       .  A
C1247      C1248   1.398       .  A
C1247      H1252   1.084       .  S
C1248      C1249   1.402       .  A
C1248      H1253   1.082   1_565  S
C1249      C1250   1.409       .  A
C1250      H1254   1.083       .  S
C1255      C1256   1.400       .  A
C1255      C1260   1.400       .  A
C1255      H1261   1.083       .  S
C1256      C1257   1.409       .  A
C1257      C1258   1.394       .  A
C1257      H1262   1.083       .  S
C1258      C1259   1.398       .  A
C1258      H1263   1.083       .  S
C1259      C1260   1.408       .  A
C1260      H1264   1.081       .  S
C1265      C1266   1.399       .  A
C1265      C1270   1.394       .  A
C1265      H1271   1.082       .  S
C1266      C1267   1.408       .  A
C1267      C1268   1.398       .  A
C1267      H1272   1.083       .  S
C1268      C1269   1.399       .  A
C1268      H1273   1.082       .  S
C1269      C1270   1.406       .  A
C1270      H1274   1.085       .  S
C1275      C1276   1.410       .  A
C1275      C1280   1.401       .  A
C1275      H1281   1.079       .  S
C1276      C1277   1.407       .  A
C1277      C1278   1.395       .  A
C1277      H1282   1.081       .  S
C1278      C1279   1.402       .  A
C1278      H1283   1.084       .  S
C1279      C1280   1.400       .  A
C1280      H1284   1.083       .  S
C1285      C1286   1.410       .  A
C1285      C1290   1.399       .  A
C1285      H1291   1.083       .  S
C1286      C1287   1.412       .  A
C1287      C1288   1.400       .  A
C1287      H1292   1.078       .  S
C1288      C1289   1.399       .  A
C1288      H1293   1.084       .  S
C1289      C1290   1.400       .  A
C1290      H1294   1.083       .  S
C1295      C1296   1.411       .  A
C1295      C1300   1.412       .  A
C1295      H1301   1.082       .  S
C1296      C1297   1.397       .  A
C1297      C1298   1.387       .  A
C1297      H1302   1.080       .  S
C1298      C1299   1.409       .  A
C1298      H1303   1.083       .  S
C1299      C1300   1.407       .  A
C1300      H1304   1.083       .  S
C1305      C1306   1.403       .  A
C1305      C1310   1.400       .  A
C1305      H1311   1.085       .  S
C1306      C1307   1.401       .  A
C1307      C1308   1.393       .  A
C1307      H1312   1.083       .  S
C1308      C1309   1.406       .  A
C1308      H1313   1.084       .  S
C1309      C1310   1.405       .  A
C1310      H1314   1.082       .  S
C1315      C1316   1.406       .  A
C1315      C1320   1.390       .  A
C1315      H1321   1.082       .  S
C1316      C1317   1.407       .  A
C1317      C1318   1.400       .  A
C1317      H1322   1.082       .  S
C1318      C1319   1.402       .  A
C1318      H1323   1.083       .  S
C1319      C1320   1.399       .  A
C1320      H1324   1.084       .  S
C1325      C1326   1.404       .  A
C1325      C1330   1.390       .  A
C1325      H1331   1.083       .  S
C1326      C1327   1.406       .  A
C1327      C1328   1.406       .  A
C1327      H1332   1.084       .  S
C1328      C1329   1.409       .  A
C1328      H1333   1.082       .  S
C1329      C1330   1.400       .  A
C1330      H1334   1.085       .  S
C1335      C1336   1.409       .  A
C1335      C1340   1.399       .  A
C1335      H1341   1.083       .  S
C1336      C1337   1.413       .  A
C1337      C1338   1.394       .  A
C1337      H1342   1.079       .  S
C1338      C1339   1.396       .  A
C1338      H1343   1.083       .  S
C1339      C1340   1.402       .  A
C1340      H1344   1.084       .  S
