geometry optimzed in LAMMPS
_audit_creation_date              2020-11-30 
_audit_creation_method            'lammps2cif' 
_symmetry_space_group_name_H-M    'P1' 
_symmetry_Int_Tables_number       1 
_symmetry_cell_setting            triclinic 
loop_ 
_symmetry_equiv_pos_as_xyz 
  x,y,z 
_cell_length_a                    41.32913040504893 
_cell_length_b                    41.854703914818735 
_cell_length_c                    31.54936712737622 
_cell_angle_alpha                 89.23870785241114 
_cell_angle_beta                  90.42825467967438 
_cell_angle_gamma                 89.72315789877253 
loop_ 
_atom_site_label 
_atom_site_type_symbol 
_atom_site_fract_x 
_atom_site_fract_y 
_atom_site_fract_z 
_atom_site_charge 
O1          O  0.41772176  0.50209418  0.41691077    -0.74790
O2          O  0.41028401  0.04751013  0.45522019    -0.53700
C3          C  0.40183359  0.02742260  0.42653751     0.78930
O4          O  0.49281374  0.42192748  0.58014765    -0.59400
O5          O  0.03892635  0.41172370  0.54357875    -0.52430
C6          C  0.01631623  0.40364409  0.56951081     0.70950
O7          O  0.41789195  0.49786651  0.58098857    -0.73950
O8          O  0.41044636  0.04620394  0.54902891    -0.54520
C9          C  0.40119553  0.02333040  0.57383427     0.76950
O10         O  0.48868961  0.42170623  0.42312639    -0.59100
O11         O  0.03836768  0.41384745  0.45418269    -0.52220
C12         C  0.01420074  0.40494442  0.43122878     0.73540
Zr13       Zr  0.46681700  0.47423431  0.43850491     2.54710
O14         O  0.42252938  0.43611908  0.43742358    -0.79660
O15         O  0.47202480  0.47514580  0.36167981    -0.93080
Zr16       Zr  0.46898566  0.47326746  0.56391649     2.64680
O17         O  0.42558947  0.43427493  0.56946796    -0.98040
O18         O  0.47452344  0.47610856  0.64067035    -0.80100
O19         O  0.44517054  0.49542396  0.50170089    -0.83450
O20         O  0.48910295  0.45124182  0.50089735    -2.18160
O21         O  0.08383240  0.01251706  0.41668041    -0.66840
O22         O  0.09222663  0.46484527  0.45129698    -0.51410
C23         C  0.10051390  0.48726146  0.42507117     0.71930
O24         O  0.01403777  0.08780980  0.58018327    -0.59750
O25         O  0.46505892  0.09664905  0.54885388    -0.51730
C26         C  0.48858230  0.10483879  0.57354590     0.73730
O27         O  0.08782332  0.01018921  0.58168734    -0.71150
O28         O  0.09381270  0.46321014  0.54628256    -0.49820
C29         C  0.10356095  0.48472913  0.57235638     0.75110
O30         O  0.01154953  0.09103585  0.42350869    -0.66480
O31         O  0.46315886  0.09798954  0.45692218    -0.53670
C32         C  0.48618700  0.10737378  0.43254110     0.73490
Zr33       Zr  0.03453126  0.03865879  0.43800654     2.77540
O34         O  0.07708862  0.07873934  0.43594224    -0.97230
O35         O  0.02862702  0.03832198  0.36118402    -0.78050
Zr36       Zr  0.03722734  0.03656500  0.56292158     2.70070
O37         O  0.08034794  0.07593766  0.56430887    -0.79290
O38         O  0.03414174  0.03248411  0.63982149    -0.98380
Zr39       Zr  0.45735892  0.05096543  0.50233436     2.21500
Zr40       Zr  0.04620575  0.45986879  0.49962978     2.11130
O41         O  0.05843842  0.01559797  0.49966525    -2.47060
O42         O  0.01423432  0.06044123  0.50124990    -0.79090
O43         O  0.02333847  0.48319255  0.43637308    -0.71280
O44         O  0.48063871  0.02823022  0.56553007    -2.32240
O45         O  0.47821961  0.02960686  0.43796206    -2.28450
O46         O  0.02565726  0.48130984  0.56405293    -0.73040
H47         H  0.48408118  0.42880380  0.50122135     0.78950
H48         H  0.47158714  0.03774410  0.59055799     0.80040
H49         H  0.08152130  0.01904033  0.49919427     0.82270
H50         H  0.46854568  0.04002291  0.41345406     0.79870
H51         H  0.46113392  0.49469554  0.64878365     0.42910
H52         H  0.03445904  0.00923511  0.64601247     0.41880
H53         H  0.07808022  0.08768659  0.53699065     0.41560
H54         H  0.09403478  0.07058593  0.45567937     0.39490
H55         H  0.03535909  0.01654686  0.35294914     0.42620
H56         H  0.47329093  0.49807731  0.35387042     0.37410
H57         H  0.42420426  0.42466972  0.46502352     0.43520
H58         H  0.43109000  0.41754382  0.54879823     0.39940
H59         H  0.08673116  0.07691968  0.40743438     0.44860
H60         H  0.45057733  0.46834617  0.35101675     0.43580
H61         H  0.42865703  0.42392114  0.59762205     0.43720
H62         H  0.05545628  0.04006091  0.64997166     0.44070
C63         C  0.48859770  0.22874209  0.34467186     0.03630
C64         C  0.49583691  0.25669237  0.36683286    -0.12520
C65         C  0.50018287  0.28584777  0.34531150     0.01130
C66         C  0.49627985  0.28719779  0.30120083    -0.11050
C67         C  0.48948683  0.25942437  0.27867499     0.03620
C68         C  0.48603248  0.23014614  0.30026964    -0.10470
H69         H  0.49829099  0.25572750  0.40106167     0.09210
H70         H  0.49893139  0.30975003  0.28431109     0.06740
H71         H  0.48161009  0.20857271  0.28255317     0.06590
C72         C  0.22271813  0.00234537  0.34052768     0.03630
C73         C  0.25211769  0.00878440  0.36142054    -0.12520
C74         C  0.27859040  0.02203917  0.33927449     0.01130
C75         C  0.27513807  0.02700970  0.29502639    -0.11050
C76         C  0.24695259  0.01769985  0.27365970     0.03620
C77         C  0.22072813  0.00578210  0.29648458    -0.10470
H78         H  0.25379192  0.00366124  0.39502559     0.09210
H79         H  0.29439189  0.03755420  0.27658524     0.06740
H80         H  0.19842414  0.00004769  0.28000168     0.06590
C81         C  0.22221171  0.00746844  0.66211849     0.03630
C82         C  0.25251774  0.01076532  0.64231745    -0.12520
C83         C  0.27928021  0.02277638  0.66445620     0.01130
C84         C  0.27628924  0.03051326  0.70732693    -0.11050
C85         C  0.24671451  0.02622272  0.72791393     0.03620
C86         C  0.21951974  0.01625918  0.70485971    -0.10470
H87         H  0.25570638  0.00333036  0.60985312     0.09210
H88         H  0.29746150  0.03764372  0.72528309     0.06740
H89         H  0.19661069  0.01410296  0.72103879     0.06590
C90         C  0.48512645  0.22707128  0.65761164     0.03630
C91         C  0.49374864  0.25477538  0.63509050    -0.12520
C92         C  0.49912250  0.28331214  0.65661066     0.01130
C93         C  0.49626418  0.28411369  0.70078444    -0.11050
C94         C  0.48750679  0.25655608  0.72342796     0.03620
C95         C  0.48221374  0.22797946  0.70188192    -0.10470
H96         H  0.49621576  0.25412978  0.60092358     0.09210
H97         H  0.50019437  0.30629885  0.71737655     0.06740
H98         H  0.47650481  0.20636812  0.71955134     0.06590
C99         C  0.24586320  0.48863835  0.16114044     0.03630
C100        C  0.25131049  0.49024058  0.20508303    -0.12520
C101        C  0.24525697  0.01835601  0.22709904     0.01130
C102        C  0.23621007  0.04611173  0.20486930    -0.11050
C103        C  0.23283025  0.04577170  0.16052590     0.03620
C104        C  0.23679914  0.01683612  0.13886653    -0.10470
H105        H  0.25956568  0.46930162  0.22266770     0.09210
H106        H  0.23255924  0.06815192  0.22189680     0.06740
H107        H  0.23347917  0.01654067  0.10478927     0.06590
O108        O  0.23029958  0.35029352  0.91283196    -0.74790
O109        O  0.27739682  0.35930127  0.94878955    -0.53700
C110        C  0.25574870  0.36696883  0.92061225     0.78930
O111        O  0.15311067  0.27706737  0.08039802    -0.59400
O112        O  0.14494579  0.22967977  0.04725422    -0.52430
C113        C  0.13662111  0.25171270  0.07323280     0.70950
O114        O  0.22804658  0.35226757  0.07881724    -0.73950
O115        O  0.27573267  0.36047468  0.04431516    -0.54520
C116        C  0.25347998  0.36867872  0.07083564     0.76950
O117        O  0.15379492  0.27491527  0.91610585    -0.59100
O118        O  0.14543904  0.22801953  0.95178013    -0.52220
C119        C  0.13725179  0.24963052  0.92408610     0.73540
Zr120      Zr  0.20432175  0.30055926  0.93464062     2.54710
O121        O  0.16294761  0.34195652  0.92836243    -0.79660
O122        O  0.20813867  0.29343871  0.85845727    -0.93080
Zr123      Zr  0.20257700  0.30304779  0.05860866     2.64680
O124        O  0.16131557  0.34458379  0.05185341    -0.98040
O125        O  0.20233480  0.30346309  0.13579315    -0.80100
O126        O  0.22570076  0.32469305  0.99609748    -0.83450
O127        O  0.18035938  0.27997318  0.99714713    -2.18160
O128        O  0.24650473  0.18201184  0.92485245    -0.66840
O129        O  0.19733066  0.17642304  0.95682084    -0.51410
C130        C  0.22054247  0.16638243  0.93328129     0.71930
O131        O  0.32018119  0.26121532  0.08205157    -0.59750
O132        O  0.32948058  0.30792786  0.04635432    -0.51730
C133        C  0.33741023  0.28586663  0.07365506     0.73730
O134        O  0.24351578  0.18836149  0.08642571    -0.71150
O135        O  0.19840273  0.17686567  0.04808132    -0.49820
C136        C  0.21997660  0.16988975  0.07665123     0.75110
O137        O  0.31979341  0.25976703  0.91805889    -0.66480
O138        O  0.32854209  0.30778618  0.94943756    -0.53670
C139        C  0.33608581  0.28551136  0.92315077     0.73490
Zr140      Zr  0.27051074  0.23381245  0.94008500     2.77540
O141        O  0.31430931  0.19468466  0.94276808    -0.97230
O142        O  0.26546969  0.23269141  0.86320891    -0.78050
Zr143      Zr  0.26913756  0.23739669  0.06433589     2.70070
O144        O  0.30989578  0.19540782  0.07059959    -0.79290
O145        O  0.26575952  0.24394272  0.14072791    -0.98380
Zr146      Zr  0.28257792  0.31368417  0.99819855     2.21500
Zr147      Zr  0.19153469  0.22374829  0.00078737     2.11130
O148        O  0.24829038  0.21297147  0.00312281    -2.47060
O149        O  0.29310200  0.25736732  0.00149076    -0.79090
O150        O  0.21437821  0.24473685  0.93687286    -0.71280
O151        O  0.25892872  0.29284410  0.06187830    -2.32240
O152        O  0.26038593  0.28959427  0.93592643    -2.28450
O153        O  0.21288120  0.24746331  0.06356727    -0.73040
H154        H  0.15732911  0.28397677  0.99642776     0.78950
H155        H  0.26835332  0.30263525  0.08659034     0.80040
H156        H  0.25274270  0.19034598  0.00483428     0.82270
H157        H  0.27006903  0.29852443  0.91068271     0.79870
H158        H  0.22544389  0.30408226  0.14421274     0.42910
H159        H  0.24307318  0.23865507  0.14770888     0.41880
H160        H  0.31909298  0.19388897  0.04180663     0.41560
H161        H  0.30646588  0.17740075  0.96174511     0.39490
H162        H  0.24218616  0.22893830  0.85772077     0.42620
H163        H  0.23149798  0.29457440  0.85204526     0.37410
H164        H  0.16457150  0.35378966  0.95525644     0.43520
H165        H  0.14345785  0.33468788  0.03566489     0.39940
H166        H  0.31437546  0.18515026  0.91421071     0.44860
H167        H  0.19868405  0.31321617  0.84595723     0.43580
H168        H  0.15271820  0.34686844  0.08087379     0.43720
H169        H  0.27861923  0.22592502  0.15274821     0.44070
C170        C  0.45862851  0.27309690  0.16679746     0.03630
C171        C  0.46032453  0.27249352  0.21137767    -0.12520
C172        C  0.48800783  0.26095494  0.23226621     0.01130
C173        C  0.01522288  0.25255448  0.20903617    -0.11050
C174        C  0.01588675  0.25765917  0.16503442     0.03620
C175        C  0.48704333  0.26661798  0.14382428    -0.10470
H176        H  0.43973957  0.27986203  0.22998511     0.09210
H177        H  0.03658441  0.24378381  0.22568517     0.06740
H178        H  0.48681629  0.26859653  0.10959850     0.06590
C179        C  0.24806989  0.49161443  0.83839184     0.03630
C180        C  0.25156668  0.49535006  0.79450441    -0.12520
C181        C  0.24568883  0.02480516  0.77448067     0.01130
C182        C  0.23732267  0.05141132  0.79856382    -0.11050
C183        C  0.23302043  0.04830780  0.84275422     0.03620
C184        C  0.23819111  0.01807376  0.86227075    -0.10470
H185        H  0.25862054  0.47508926  0.77552867     0.09210
H186        H  0.23409886  0.07435374  0.78279013     0.06740
H187        H  0.23438521  0.01502473  0.89601053     0.06590
C188        C  0.45695390  0.27058644  0.83458921     0.03630
C189        C  0.45822928  0.26901527  0.79000992    -0.12520
C190        C  0.48577580  0.25736596  0.76985574     0.01130
C191        C  0.01273315  0.24822347  0.79383866    -0.11050
C192        C  0.01295611  0.25141644  0.83801949     0.03620
C193        C  0.48469715  0.26178808  0.85852114    -0.10470
H194        H  0.43768602  0.27665998  0.77081279     0.09210
H195        H  0.03432175  0.24009986  0.77777865     0.06740
H196        H  0.48455451  0.26344259  0.89274427     0.06590
C197        C  0.20023025  0.12941254  0.87833415    -0.11770
C198        C  0.21851878  0.13406167  0.91528297     0.05230
C199        C  0.23880656  0.10918993  0.93075760    -0.07060
C200        C  0.24224001  0.08126850  0.90697905    -0.07800
C201        C  0.22507161  0.07687996  0.86886504    -0.02350
C202        C  0.20261209  0.10084069  0.85540349     0.04460
N203        N  0.18193257  0.09655097  0.81905276     0.66970
H204        H  0.18439165  0.14841480  0.86692240     0.15870
H205        H  0.25916796  0.06307396  0.91790970     0.15580
N206        N  0.25629685  0.11205184  0.97019239     0.74670
O207        O  0.16911997  0.06976228  0.81223453    -0.38780
O208        O  0.17367168  0.12026568  0.79622283    -0.38720
O209        O  0.24404968  0.12705548  0.00061361    -0.39420
O210        O  0.28202573  0.09628152  0.97665014    -0.39490
C211        C  0.27584537  0.42364974  0.91281264    -0.11770
C212        C  0.25893844  0.39758649  0.89586023     0.05230
C213        C  0.24222277  0.40216930  0.85684226    -0.07060
C214        C  0.23869966  0.43298550  0.83954298    -0.07800
C215        C  0.25337743  0.45948208  0.85830405    -0.02350
C216        C  0.27331534  0.45452960  0.89449634     0.04460
N217        N  0.29158606  0.48027682  0.91235593     0.66970
H218        H  0.29114889  0.42003410  0.94039717     0.15870
H219        H  0.22464301  0.43621294  0.81065785     0.15580
N220        N  0.23055653  0.37556269  0.83298736     0.74670
O221        O  0.29500647  0.48228770  0.95199549    -0.38780
O222        O  0.30629371  0.49979259  0.88859269    -0.38720
O223        O  0.20464628  0.37801253  0.81170767    -0.39420
O224        O  0.24899363  0.35193823  0.82701403    -0.39490
C225        C  0.36887051  0.27204082  0.13825041    -0.11770
C226        C  0.36818617  0.28750211  0.09841035     0.05230
C227        C  0.39732601  0.30003826  0.08220890    -0.07060
C228        C  0.42606620  0.29696084  0.10625954    -0.07800
C229        C  0.42705510  0.27919625  0.14455855    -0.02350
C230        C  0.39779651  0.26620925  0.16018808     0.04460
N231        N  0.39713734  0.24454911  0.19589925     0.66970
H232        H  0.34686378  0.26192729  0.15109010     0.15870
H233        H  0.44814536  0.30696493  0.09360835     0.15580
N234        N  0.39901903  0.31243462  0.03977643     0.74670
O235        O  0.37484906  0.24667324  0.22288638    -0.38780
O236        O  0.41544677  0.22030641  0.19679210    -0.38720
O237        O  0.41662577  0.33624906  0.03153748    -0.39420
O238        O  0.38852035  0.29575587  0.00969580    -0.39490
C239        C  0.10519081  0.26302120  0.13753374    -0.11770
C240        C  0.10610522  0.24883654  0.09745805     0.05230
C241        C  0.07705491  0.23708614  0.07983410    -0.07060
C242        C  0.04805971  0.23980146  0.10251167    -0.07800
C243        C  0.04708763  0.25491084  0.14201615    -0.02350
C244        C  0.07615302  0.26732612  0.15917524     0.04460
N245        N  0.07644797  0.28643780  0.19674258     0.66970
H246        H  0.12711884  0.27285356  0.15105730     0.15870
H247        H  0.02607450  0.23026582  0.08882556     0.15580
N248        N  0.07584574  0.22488544  0.03773779     0.74670
O249        O  0.09953206  0.28385734  0.22302728    -0.38780
O250        O  0.05624833  0.30890793  0.20075529    -0.38720
O251        O  0.08935249  0.19858666  0.02962556    -0.39420
O252        O  0.05622334  0.23705732  0.01120656    -0.39490
C253        C  0.39338103  0.30392783  0.91076900    -0.11770
C254        C  0.36556815  0.28813866  0.89632818     0.05230
C255        C  0.36736658  0.27099218  0.85796976    -0.07060
C256        C  0.39737530  0.26573770  0.83923345    -0.07800
C257        C  0.42580524  0.27932551  0.85532468    -0.02350
C258        C  0.42350081  0.30005068  0.89048713     0.04460
N259        N  0.45099351  0.31772451  0.90541174     0.66970
H260        H  0.39174265  0.31923063  0.93797736     0.15870
H261        H  0.39840104  0.25069548  0.81160048     0.15580
N262        N  0.33877764  0.25949306  0.83697932     0.74670
O263        O  0.47084253  0.32956149  0.87941918    -0.38780
O264        O  0.45350949  0.32469012  0.94410937    -0.38720
O265        O  0.31432170  0.27750505  0.83290013    -0.39420
O266        O  0.33940206  0.23334363  0.81748426    -0.39490
C267        C  0.06998736  0.26639274  0.84459998    -0.11770
C268        C  0.04438642  0.24827395  0.86073501     0.05230
C269        C  0.04998392  0.22773731  0.89616041    -0.07060
C270        C  0.08088761  0.22761411  0.91577318    -0.07800
C271        C  0.10629518  0.24652716  0.89992978    -0.02350
C272        C  0.10083768  0.26478383  0.86241195     0.04460
N273        N  0.12669357  0.28045699  0.84045931     0.66970
H274        H  0.06616746  0.28145779  0.81676228     0.15870
H275        H  0.08521626  0.21255450  0.94337322     0.15580
N276        N  0.02533705  0.20638271  0.91164406     0.74670
O277        O  0.15084196  0.26432086  0.82880479    -0.38780
O278        O  0.12289037  0.30856009  0.82617672    -0.38720
O279        O  0.00439240  0.19515201  0.88668813    -0.39420
O280        O  0.02664612  0.19569086  0.94922511    -0.39490
C281        C  0.20058843  0.08416480  0.11494434    -0.11770
C282        C  0.22931557  0.07654750  0.13710765     0.05230
C283        C  0.25399363  0.09952739  0.13976963    -0.07060
C284        C  0.24919567  0.12960214  0.12112175    -0.07800
C285        C  0.22053672  0.13791287  0.09880928    -0.02350
C286        C  0.19568205  0.11470668  0.09615135     0.04460
N287        N  0.16510283  0.12184092  0.07623718     0.66970
H288        H  0.18139281  0.06665446  0.11369914     0.15870
H289        H  0.26904298  0.14630990  0.12311538     0.15580
N290        N  0.28443950  0.09257619  0.16056069     0.74670
O291        O  0.15107403  0.10088236  0.05443113    -0.38780
O292        O  0.14954558  0.14655856  0.08649485    -0.38720
O293        O  0.29803469  0.06575860  0.15613381    -0.39420
O294        O  0.29951618  0.11435714  0.17960110    -0.39490
C295        C  0.24241890  0.39975281  0.13555895    -0.11770
C296        C  0.25592878  0.39899934  0.09484626     0.05230
C297        C  0.26729504  0.42775358  0.07679505    -0.07060
C298        C  0.26484889  0.45640795  0.09939415    -0.07800
C299        C  0.24952285  0.45744132  0.13906182    -0.02350
C300        C  0.23801753  0.42845049  0.15713348     0.04460
N301        N  0.21979801  0.42774580  0.19576270     0.66970
H302        H  0.23316815  0.37793408  0.14973223     0.15870
H303        H  0.27376020  0.47824568  0.08494962     0.15580
N304        N  0.27778380  0.42893223  0.03385096     0.74670
O305        O  0.19631484  0.44672561  0.20058866    -0.38780
O306        O  0.22438441  0.40551754  0.22262091    -0.38720
O307        O  0.25839768  0.42084046  0.00489997    -0.39420
O308        O  0.30366620  0.44310501  0.02436353    -0.39490
C309        C  0.03566498  0.32328308  0.62325248    -0.11770
C310        C  0.50411530  0.31312079  0.63258650     0.05230
C311        C  0.47733279  0.33099051  0.61771357    -0.07060
C312        C  0.48283594  0.35914862  0.59494348    -0.07800
C313        C  0.01426370  0.37067990  0.58725653    -0.02350
C314        C  0.04110697  0.35175973  0.60011849     0.04460
N315        N  0.07366717  0.36099628  0.59068354     0.66970
H316        H  0.05610083  0.30884897  0.63379368     0.15870
H317        H  0.46198027  0.37284077  0.58420867     0.15580
N318        N  0.44445919  0.32131554  0.62572796     0.74670
O319        O  0.09535054  0.35836612  0.61892220    -0.38780
O320        O  0.08201655  0.36503668  0.55259642    -0.38720
O321        O  0.43659032  0.30955865  0.66120782    -0.39420
O322        O  0.42239890  0.32808179  0.59914780    -0.39490
C323        C  0.01062281  0.17623245  0.64173369    -0.11770
C324        C  0.48386603  0.19623376  0.63573914     0.05230
C325        C  0.45766702  0.18627155  0.60978100    -0.07060
C326        C  0.45982234  0.15620938  0.59009256    -0.07800
C327        C  0.48689236  0.13600790  0.59603287    -0.02350
C328        C  0.01240897  0.14644146  0.62287266     0.04460
N329        N  0.04031526  0.12715044  0.63223823     0.66970
H330        H  0.03046884  0.18379887  0.66189294     0.15870
H331        H  0.44018552  0.14852575  0.56980726     0.15580
N332        N  0.42873080  0.20544303  0.60358267     0.74670
O333        O  0.06801360  0.13719516  0.62223595    -0.38840
O334        O  0.03800796  0.10425274  0.65845198    -0.38720
O335        O  0.42740914  0.23417683  0.61507210    -0.39420
O336        O  0.40398564  0.19355661  0.58628046    -0.39490
C337        C  0.48641977  0.32247763  0.40299184    -0.11770
C338        C  0.50709611  0.31510092  0.36950548     0.05230
C339        C  0.03269613  0.33618770  0.35911988    -0.07060
C340        C  0.03573086  0.36493640  0.38138267    -0.07800
C341        C  0.01428843  0.37255267  0.41394055    -0.02350
C342        C  0.48986685  0.35070822  0.42563477     0.04460
N343        N  0.46843531  0.35682261  0.46035617     0.66970
H344        H  0.46706035  0.30621845  0.41124332     0.15870
H345        H  0.05444790  0.38178156  0.37272577     0.15580
N346        N  0.05570774  0.32883298  0.32657398     0.74670
O347        O  0.43993246  0.34609530  0.45991923    -0.38780
O348        O  0.47923876  0.36890714  0.49397883    -0.38720
O349        O  0.06889764  0.35105601  0.30559051    -0.39420
O350        O  0.06546110  0.30049904  0.32165262    -0.39490
C351        C  0.01074244  0.18992085  0.39711485    -0.11770
C352        C  0.48586687  0.19802220  0.36833988     0.05230
C353        C  0.45955207  0.17679988  0.36294588    -0.07060
C354        C  0.45946155  0.14768146  0.38572887    -0.07800
C355        C  0.48461158  0.13969466  0.41401113    -0.02350
C356        C  0.01028729  0.16129244  0.42046383     0.04460
N357        N  0.03587257  0.15464847  0.45068897     0.66970
H358        H  0.03081076  0.20615211  0.40144140     0.15870
H359        H  0.43989390  0.13092288  0.38099384     0.15580
N360        N  0.43271803  0.18445564  0.33524431     0.74670
O361        O  0.06367971  0.16631264  0.44525564    -0.38780
O362        O  0.02999635  0.14004832  0.48504212    -0.38720
O363        O  0.41797594  0.16249872  0.31611612    -0.39420
O364        O  0.42137268  0.21250494  0.33345572    -0.39490
C365        C  0.18963443  0.00602595  0.59539577    -0.11770
C366        C  0.19346221  0.99575173  0.63771844     0.05230
C367        C  0.16894216  0.47622671  0.65592934    -0.07060
C368        C  0.14005783  0.47095263  0.63303185    -0.07800
C369        C  0.13622462  0.48229776  0.59132562    -0.02350
C370        C  0.16193575  0.99863932  0.57180761     0.04460
N371        N  0.15983304  0.00839904  0.52815173     0.66970
H372        H  0.20802029  0.02061082  0.58056042     0.15870
H373        H  0.12030929  0.45820921  0.64790601     0.15580
N374        N  0.17304309  0.46121141  0.69690615     0.74670
O375        O  0.17366412  0.03353566  0.51540473    -0.38780
O376        O  0.14836698  0.48940916  0.50132023    -0.38720
O377        O  0.14895464  0.95695655  0.72067553    -0.39420
O378        O  0.19990193  0.44881892  0.70736266    -0.39490
C379        C  0.36159900  0.99905114  0.62368762    -0.11770
C380        C  0.36950336  0.02500662  0.59661082     0.05230
C381        C  0.34723919  0.05086511  0.59321728    -0.07060
C382        C  0.31851284  0.05006345  0.61698960    -0.07800
C383        C  0.31114817  0.02401079  0.64363332    -0.02350
C384        C  0.33298030  0.99814324  0.64701000     0.04460
N385        N  0.32628275  0.47033522  0.67285675     0.66970
H386        H  0.37794718  0.47889316  0.62727625     0.15870
H387        H  0.30127631  0.06955748  0.61372488     0.15580
N388        N  0.35266035  0.07767183  0.56544293     0.74670
O389        O  0.33568938  0.44309411  0.66123088    -0.38780
O390        O  0.31462857  0.97316256  0.70947318    -0.38720
O391        O  0.35495858  0.07339677  0.52607408    -0.39420
O392        O  0.34799594  0.10563008  0.57869846    -0.39490
C393        C  0.15168142  0.01412809  0.41323681    -0.11770
C394        C  0.13287589  0.48696332  0.40561478     0.05230
C395        C  0.14412189  0.46367069  0.37694246    -0.07060
C396        C  0.17445082  0.46849644  0.35738974    -0.07800
C397        C  0.19283174  0.99614201  0.36487421    -0.02350
C398        C  0.18100932  0.01930938  0.39292096     0.04460
N399        N  0.19696485  0.04941673  0.39854633     0.66970
H400        H  0.14252648  0.03251831  0.43393667     0.15870
H401        H  0.18331275  0.45129596  0.33484026     0.15580
N402        N  0.12479196  0.43645692  0.36529547     0.74670
O403        O  0.20586024  0.06554646  0.36663888    -0.38780
O404        O  0.19705617  0.06240895  0.43443617    -0.38720
O405        O  0.09446481  0.43671653  0.36973075    -0.39420
O406        O  0.13763359  0.41312743  0.34668400    -0.39490
C407        C  0.34281929  0.03773421  0.42511553    -0.11770
C408        C  0.37139420  0.03284578  0.40266738     0.05230
C409        C  0.36982241  0.02879887  0.35825686    -0.07060
C410        C  0.33939551  0.02512007  0.33878798    -0.07800
C411        C  0.31028742  0.02876491  0.36135065    -0.02350
C412        C  0.31251106  0.03723284  0.40479817     0.04460
N413        N  0.28469419  0.04679525  0.42840213     0.66970
H414        H  0.34405251  0.04168776  0.45888127     0.15870
H415        H  0.33874232  0.01892402  0.30568076     0.15580
N416        N  0.39861402  0.02906655  0.33251981     0.74670
O417        O  0.28137646  0.53752711  0.46637311    -0.38780
O418        O  0.26648211  0.06863645  0.41383453    -0.38720
O419        O  0.42377198  0.04321996  0.34505526    -0.39420
O420        O  0.39742146  0.01989430  0.29456715    -0.39490
O421        O  0.41772182  0.00209412  0.41691072    -0.74790
O422        O  0.41028393  0.54751016  0.45522026    -0.53700
C423        C  0.40183351  0.52742264  0.42653758     0.78930
O424        O  0.49281381  0.92192748  0.58014767    -0.59400
O425        O  0.03892646  0.91172370  0.54357872    -0.52430
C426        C  0.01631634  0.90364408  0.56951079     0.70950
O427        O  0.41789202  0.99786652  0.58098858    -0.73950
O428        O  0.41044630  0.54620395  0.54902894    -0.54520
C429        C  0.40119546  0.52333040  0.57383427     0.76950
O430        O  0.48868969  0.92170620  0.42312643    -0.59100
O431        O  0.03836778  0.91384745  0.45418267    -0.52220
C432        C  0.01420083  0.90494441  0.43122878     0.73540
Zr433      Zr  0.46681707  0.97423428  0.43850491     2.54710
O434        O  0.42252945  0.93611904  0.43742357    -0.79660
O435        O  0.47202491  0.97514573  0.36167981    -0.93080
Zr436      Zr  0.46898572  0.97326745  0.56391649     2.64680
O437        O  0.42558953  0.93427492  0.56946796    -0.98040
O438        O  0.47452351  0.97610856  0.64067035    -0.80100
O439        O  0.44517060  0.99542394  0.50170088    -0.83450
O440        O  0.48910302  0.95124180  0.50089736    -2.18160
O441        O  0.08383234  0.51251705  0.41668045    -0.66840
O442        O  0.09222670  0.96484528  0.45129695    -0.51410
C443        C  0.10051396  0.98726147  0.42507113     0.71930
O444        O  0.01403772  0.58780980  0.58018329    -0.59750
O445        O  0.46505887  0.59664906  0.54885391    -0.51730
C446        C  0.48858226  0.60483880  0.57354593     0.73730
O447        O  0.08782322  0.51018918  0.58168740    -0.71150
O448        O  0.09381280  0.96321016  0.54628252    -0.49820
C449        C  0.10356105  0.98472917  0.57235633     0.75110
O450        O  0.01154949  0.59103585  0.42350871    -0.66480
O451        O  0.46315880  0.59798956  0.45692221    -0.53670
C452        C  0.48618694  0.60737380  0.43254114     0.73490
Zr453      Zr  0.03453121  0.53865878  0.43800656     2.77540
O454        O  0.07708857  0.57873933  0.43594226    -0.97230
O455        O  0.02862696  0.53832196  0.36118405    -0.78050
Zr456      Zr  0.03722726  0.53656499  0.56292161     2.70070
O457        O  0.08034788  0.57593762  0.56430890    -0.79290
O458        O  0.03414164  0.53248411  0.63982152    -0.98380
Zr459      Zr  0.45735886  0.55096545  0.50233440     2.21500
Zr460      Zr  0.04620584  0.95986880  0.49962976     2.11130
O461        O  0.05843835  0.51559796  0.49966528    -2.47060
O462        O  0.01423426  0.56044123  0.50124993    -0.79090
O463        O  0.02333854  0.98319255  0.43637306    -0.71280
O464        O  0.48063864  0.52823022  0.56553009    -2.32240
O465        O  0.47821955  0.52960689  0.43796208    -2.28450
O466        O  0.02565736  0.98130985  0.56405291    -0.73040
H467        H  0.48408125  0.92880379  0.50122137     0.78950
H468        H  0.47158708  0.53774410  0.59055802     0.80040
H469        H  0.08152123  0.51904032  0.49919431     0.82270
H470        H  0.46854561  0.54002294  0.41345408     0.79870
H471        H  0.46113403  0.99469557  0.64878364     0.42910
H472        H  0.03445893  0.50923511  0.64601250     0.41880
H473        H  0.07808018  0.58768656  0.53699068     0.41560
H474        H  0.09403472  0.57058592  0.45567938     0.39490
H475        H  0.03535896  0.51654682  0.35294919     0.42620
H476        H  0.47329134  0.99807723  0.35387043     0.37410
H477        H  0.42420432  0.92466970  0.46502351     0.43520
H478        H  0.43109007  0.91754381  0.54879822     0.39940
H479        H  0.08673111  0.57691966  0.40743439     0.44860
H480        H  0.45057736  0.96834637  0.35101672     0.43580
H481        H  0.42865709  0.92392114  0.59762204     0.43720
H482        H  0.05545619  0.54006090  0.64997169     0.44070
C483        C  0.48859771  0.72874208  0.34467187     0.03630
C484        C  0.49583694  0.75669236  0.36683288    -0.12520
C485        C  0.50018292  0.78584776  0.34531152     0.01130
C486        C  0.49627991  0.78719778  0.30120085    -0.11050
C487        C  0.48948686  0.75942437  0.27867501     0.03620
C488        C  0.48603249  0.73014614  0.30026966    -0.10470
H489        H  0.49829101  0.75572749  0.40106169     0.09210
H490        H  0.49893146  0.80975002  0.28431111     0.06740
H491        H  0.48161009  0.70857271  0.28255319     0.06590
C492        C  0.22271807  0.50234539  0.34052772     0.03630
C493        C  0.25211762  0.50878443  0.36142059    -0.12520
C494        C  0.27859034  0.52203917  0.33927453     0.01130
C495        C  0.27513804  0.52700967  0.29502643    -0.11050
C496        C  0.24695255  0.51769985  0.27365974     0.03620
C497        C  0.22072807  0.50578212  0.29648462    -0.10470
H498        H  0.25379185  0.50366129  0.39502565     0.09210
H499        H  0.29439188  0.53755413  0.27658529     0.06740
H500        H  0.19842409  0.50004771  0.28000172     0.06590
C501        C  0.22221162  0.50746843  0.66211849     0.03630
C502        C  0.25251766  0.51076529  0.64231743    -0.12520
C503        C  0.27928013  0.52277637  0.66445617     0.01130
C504        C  0.27628916  0.53051326  0.70732689    -0.11050
C505        C  0.24671443  0.52622273  0.72791390     0.03620
C506        C  0.21951966  0.51625919  0.70485970    -0.10470
H507        H  0.25570629  0.50333032  0.60985311     0.09210
H508        H  0.29746143  0.53764372  0.72528304     0.06740
H509        H  0.19661061  0.51410297  0.72103879     0.06590
C510        C  0.48512645  0.72707130  0.65761165     0.03630
C511        C  0.49374865  0.75477539  0.63509051    -0.12520
C512        C  0.49912253  0.78331214  0.65661068     0.01130
C513        C  0.49626421  0.78411370  0.70078446    -0.11050
C514        C  0.48750680  0.75655610  0.72342798     0.03620
C515        C  0.48221374  0.72797948  0.70188193    -0.10470
H516        H  0.49621578  0.75412978  0.60092359     0.09210
H517        H  0.50019441  0.80629886  0.71737656     0.06740
H518        H  0.47650479  0.70636814  0.71955136     0.06590
C519        C  0.24586318  0.98863838  0.16114038     0.03630
C520        C  0.25131046  0.99024058  0.20508298    -0.12520
C521        C  0.24525694  0.51835600  0.22709909     0.01130
C522        C  0.23620999  0.54611170  0.20486933    -0.11050
C523        C  0.23283020  0.54577165  0.16052593     0.03620
C524        C  0.23679912  0.51683607  0.13886658    -0.10470
H525        H  0.25956558  0.96930160  0.22266763     0.09210
H526        H  0.23255914  0.56815188  0.22189683     0.06740
H527        H  0.23347914  0.51654062  0.10478932     0.06590
O528        O  0.23029961  0.85029350  0.91283198    -0.74790
O529        O  0.27739685  0.85930124  0.94878958    -0.53700
C530        C  0.25574873  0.86696881  0.92061227     0.78930
O531        O  0.15311068  0.77706734  0.08039804    -0.59400
O532        O  0.14494580  0.72967975  0.04725424    -0.52430
C533        C  0.13662113  0.75171267  0.07323281     0.70950
O534        O  0.22804655  0.85226756  0.07881722    -0.73950
O535        O  0.27573266  0.86047467  0.04431520    -0.54520
C536        C  0.25347995  0.86867872  0.07083564     0.76950
O537        O  0.15379495  0.77491525  0.91610587    -0.59100
O538        O  0.14543907  0.72801952  0.95178015    -0.52220
C539        C  0.13725182  0.74963050  0.92408612     0.73540
Zr540      Zr  0.20432178  0.80055924  0.93464065     2.54710
O541        O  0.16294764  0.84195650  0.92836244    -0.79660
O542        O  0.20813871  0.79343868  0.85845730    -0.93080
Zr543      Zr  0.20257701  0.80304776  0.05860869     2.64680
O544        O  0.16131556  0.84458374  0.05185348    -0.98040
O545        O  0.20233484  0.80346305  0.13579318    -0.80100
O546        O  0.22570077  0.82469302  0.99609751    -0.83450
O547        O  0.18035940  0.77997316  0.99714715    -2.18160
O548        O  0.24650475  0.68201183  0.92485247    -0.66840
O549        O  0.19733067  0.67642303  0.95682085    -0.51410
C550        C  0.22054249  0.66638243  0.93328130     0.71930
O551        O  0.32018120  0.76121529  0.08205162    -0.59750
O552        O  0.32948060  0.80792784  0.04635436    -0.51730
C553        C  0.33741025  0.78586661  0.07365511     0.73730
O554        O  0.24351581  0.68836145  0.08642573    -0.71150
O555        O  0.19840274  0.67686565  0.04808133    -0.49820
C556        C  0.21997662  0.66988971  0.07665124     0.75110
O557        O  0.31979344  0.75976702  0.91805894    -0.66480
O558        O  0.32854211  0.80778617  0.94943761    -0.53670
C559        C  0.33608584  0.78551135  0.92315082     0.73490
Zr560      Zr  0.27051077  0.73381243  0.94008504     2.77540
O561        O  0.31430934  0.69468464  0.94276815    -0.97230
O562        O  0.26546975  0.73269139  0.86320895    -0.78050
Zr563      Zr  0.26913758  0.73739667  0.06433593     2.70070
O564        O  0.30989580  0.69540780  0.07059966    -0.79290
O565        O  0.26575951  0.74394270  0.14072795    -0.98380
Zr566      Zr  0.28257794  0.81368416  0.99819860     2.21500
Zr567      Zr  0.19153471  0.72374827  0.00078739     2.11130
O568        O  0.24829040  0.71297145  0.00312285    -2.47060
O569        O  0.29310202  0.75736731  0.00149081    -0.79090
O570        O  0.21437824  0.74473683  0.93687289    -0.71280
O571        O  0.25892873  0.79284408  0.06187834    -2.32240
O572        O  0.26038596  0.78959425  0.93592647    -2.28450
O573        O  0.21288121  0.74746328  0.06356731    -0.73040
H574        H  0.15732913  0.78397675  0.99642778     0.78950
H575        H  0.26835333  0.80263523  0.08659038     0.80040
H576        H  0.25274272  0.69034596  0.00483432     0.82270
H577        H  0.27006907  0.79852442  0.91068275     0.79870
H578        H  0.22544393  0.80408230  0.14421275     0.42910
H579        H  0.24307317  0.73865504  0.14770891     0.41880
H580        H  0.31909298  0.69388893  0.04180669     0.41560
H581        H  0.30646589  0.67740073  0.96174517     0.39490
H582        H  0.24218621  0.72893830  0.85772080     0.42620
H583        H  0.23149802  0.79457439  0.85204529     0.37410
H584        H  0.16457151  0.85378962  0.95525647     0.43520
H585        H  0.14345786  0.83468784  0.03566494     0.39940
H586        H  0.31437551  0.68515025  0.91421078     0.44860
H587        H  0.19868407  0.81321612  0.84595725     0.43580
H588        H  0.15271818  0.84686836  0.08087386     0.43720
H589        H  0.27861922  0.72592500  0.15274826     0.44070
C590        C  0.45862854  0.77309689  0.16679748     0.03630
C591        C  0.46032457  0.77249351  0.21137769    -0.12520
C592        C  0.48800786  0.76095494  0.23226624     0.01130
C593        C  0.01522289  0.75255448  0.20903618    -0.11050
C594        C  0.01588677  0.75765916  0.16503443     0.03620
C595        C  0.48704335  0.76661797  0.14382430    -0.10470
H596        H  0.43973960  0.77986203  0.22998513     0.09210
H597        H  0.03658442  0.74378381  0.22568518     0.06740
H598        H  0.48681631  0.76859650  0.10959852     0.06590
C599        C  0.24806996  0.99161442  0.83839187     0.03630
C600        C  0.25156674  0.99535005  0.79450444    -0.12520
C601        C  0.24568877  0.52480518  0.77448064     0.01130
C602        C  0.23732261  0.55141133  0.79856380    -0.11050
C603        C  0.23302037  0.54830781  0.84275419     0.03620
C604        C  0.23819105  0.51807377  0.86227072    -0.10470
H605        H  0.25862060  0.97508924  0.77552871     0.09210
H606        H  0.23409881  0.57435376  0.78279011     0.06740
H607        H  0.23438514  0.51502473  0.89601049     0.06590
C608        C  0.45695392  0.77058645  0.83458923     0.03630
C609        C  0.45822930  0.76901528  0.79000994    -0.12520
C610        C  0.48577582  0.75736597  0.76985576     0.01130
C611        C  0.01273319  0.74822348  0.79383867    -0.11050
C612        C  0.01295614  0.75141645  0.83801949     0.03620
C613        C  0.48469717  0.76178808  0.85852116    -0.10470
H614        H  0.43768603  0.77665998  0.77081282     0.09210
H615        H  0.03432179  0.74009988  0.77777865     0.06740
H616        H  0.48455454  0.76344259  0.89274429     0.06590
C617        C  0.20023025  0.62941256  0.87833415    -0.11770
C618        C  0.21851879  0.63406167  0.91528296     0.05230
C619        C  0.23880656  0.60918992  0.93075758    -0.07060
C620        C  0.24223999  0.58126850  0.90697903    -0.07800
C621        C  0.22507158  0.57687997  0.86886502    -0.02350
C622        C  0.20261207  0.60084071  0.85540349     0.04460
N623        N  0.18193254  0.59655101  0.81905276     0.66970
H624        H  0.18439166  0.64841483  0.86692242     0.15870
H625        H  0.25916793  0.56307395  0.91790966     0.15580
N626        N  0.25629686  0.61205181  0.97019236     0.74670
O627        O  0.16911992  0.56976232  0.81223453    -0.38780
O628        O  0.17367165  0.62026572  0.79622284    -0.38720
O629        O  0.24404970  0.62705545  0.00061360    -0.39420
O630        O  0.28202573  0.59628149  0.97665011    -0.39490
C631        C  0.27584545  0.92364970  0.91281262    -0.11770
C632        C  0.25893848  0.89758647  0.89586025     0.05230
C633        C  0.24222276  0.90216930  0.85684231    -0.07060
C634        C  0.23869967  0.93298550  0.83954304    -0.07800
C635        C  0.25337748  0.95948207  0.85830408    -0.02350
C636        C  0.27331544  0.95452956  0.89449633     0.04460
N637        N  0.29158621  0.98027677  0.91235589     0.66970
H638        H  0.29114902  0.92003404  0.94039711     0.15870
H639        H  0.22464299  0.93621296  0.81065794     0.15580
N640        N  0.23055647  0.87556270  0.83298743     0.74670
O641        O  0.29500679  0.98228756  0.95199543    -0.38780
O642        O  0.30629378  0.99979258  0.88859261    -0.38720
O643        O  0.20464618  0.87801257  0.81170781    -0.39420
O644        O  0.24899356  0.85193825  0.82701402    -0.39490
C645        C  0.36887053  0.77204080  0.13825045    -0.11770
C646        C  0.36818618  0.78750208  0.09841039     0.05230
C647        C  0.39732602  0.80003823  0.08220893    -0.07060
C648        C  0.42606622  0.79696081  0.10625955    -0.07800
C649        C  0.42705512  0.77919623  0.14455858    -0.02350
C650        C  0.39779653  0.76620924  0.16018812     0.04460
N651        N  0.39713737  0.74454912  0.19589931     0.66970
H652        H  0.34686380  0.76192728  0.15109015     0.15870
H653        H  0.44814537  0.80696489  0.09360836     0.15580
N654        N  0.39901904  0.81243457  0.03977645     0.74670
O655        O  0.37484909  0.74667326  0.22288644    -0.38780
O656        O  0.41544678  0.72030642  0.19679217    -0.38720
O657        O  0.41662579  0.83624900  0.03153747    -0.39420
O658        O  0.38852036  0.79575580  0.00969583    -0.39490
C659        C  0.10519083  0.76302118  0.13753376    -0.11770
C660        C  0.10610524  0.74883651  0.09745806     0.05230
C661        C  0.07705492  0.73708612  0.07983412    -0.07060
C662        C  0.04805972  0.73980145  0.10251168    -0.07800
C663        C  0.04708764  0.75491083  0.14201616    -0.02350
C664        C  0.07615304  0.76732610  0.15917525     0.04460
N665        N  0.07644798  0.78643778  0.19674258     0.66970
H666        H  0.12711885  0.77285353  0.15105731     0.15870
H667        H  0.02607451  0.73026580  0.08882557     0.15580
N668        N  0.07584575  0.72488542  0.03773780     0.74670
O669        O  0.09953208  0.78385734  0.22302729    -0.38780
O670        O  0.05624836  0.80890792  0.20075529    -0.38720
O671        O  0.08935250  0.69858664  0.02962558    -0.39420
O672        O  0.05622336  0.73705729  0.01120658    -0.39490
C673        C  0.39338106  0.80392782  0.91076905    -0.11770
C674        C  0.36556818  0.78813865  0.89632823     0.05230
C675        C  0.36736660  0.77099218  0.85796980    -0.07060
C676        C  0.39737532  0.76573770  0.83923348    -0.07800
C677        C  0.42580527  0.77932550  0.85532472    -0.02350
C678        C  0.42350084  0.80005066  0.89048718     0.04460
N679        N  0.45099354  0.81772449  0.90541179     0.66970
H680        H  0.39174269  0.81923061  0.93797742     0.15870
H681        H  0.39840106  0.75069549  0.81160051     0.15580
N682        N  0.33877766  0.75949308  0.83697936     0.74670
O683        O  0.47084255  0.82956148  0.87941924    -0.38780
O684        O  0.45350954  0.82469007  0.94410943    -0.38720
O685        O  0.31432172  0.77750506  0.83290018    -0.39420
O686        O  0.33940207  0.73334365  0.81748427    -0.39490
C687        C  0.06998740  0.76639273  0.84459999    -0.11770
C688        C  0.04438645  0.74827395  0.86073501     0.05230
C689        C  0.04998394  0.72773731  0.89616041    -0.07060
C690        C  0.08088763  0.72761410  0.91577318    -0.07800
C691        C  0.10629521  0.74652714  0.89992979    -0.02350
C692        C  0.10083772  0.76478381  0.86241196     0.04460
N693        N  0.12669361  0.78045697  0.84045932     0.66970
H694        H  0.06616750  0.78145779  0.81676228     0.15870
H695        H  0.08521628  0.71255449  0.94337323     0.15580
N696        N  0.02533707  0.70638271  0.91164406     0.74670
O697        O  0.15084200  0.76432083  0.82880481    -0.38780
O698        O  0.12289042  0.80856007  0.82617673    -0.38720
O699        O  0.00439242  0.69515200  0.88668812    -0.39420
O700        O  0.02664614  0.69569086  0.94922511    -0.39490
C701        C  0.20058839  0.58416478  0.11494437    -0.11770
C702        C  0.22931553  0.57654745  0.13710767     0.05230
C703        C  0.25399361  0.59952732  0.13976964    -0.07060
C704        C  0.24919567  0.62960208  0.12112175    -0.07800
C705        C  0.22053672  0.63791283  0.09880929    -0.02350
C706        C  0.19568203  0.61470666  0.09615137     0.04460
N707        N  0.16510282  0.62184091  0.07623720     0.66970
H708        H  0.18139276  0.56665445  0.11369917     0.15870
H709        H  0.26904299  0.64630983  0.12311537     0.15580
N710        N  0.28443947  0.59257611  0.16056070     0.74670
O711        O  0.15107400  0.60088237  0.05443115    -0.38780
O712        O  0.14954558  0.64655856  0.08649488    -0.38720
O713        O  0.29803464  0.56575851  0.15613384    -0.39420
O714        O  0.29951616  0.61435705  0.17960111    -0.39490
C715        C  0.24241871  0.89975287  0.13555886    -0.11770
C716        C  0.25592872  0.89899936  0.09484624     0.05230
C717        C  0.26729509  0.92775357  0.07679507    -0.07060
C718        C  0.26484893  0.95640795  0.09939416    -0.07800
C719        C  0.24952279  0.95744136  0.13906175    -0.02350
C720        C  0.23801733  0.92845056  0.15713336     0.04460
N721        N  0.21979768  0.92774593  0.19576247     0.66970
H722        H  0.23316787  0.87793416  0.14973210     0.15870
H723        H  0.27376033  0.97824566  0.08494968     0.15580
N724        N  0.27778396  0.92893220  0.03385104     0.74670
O725        O  0.19631460  0.94672586  0.20058833    -0.38780
O726        O  0.22438386  0.90551762  0.22262067    -0.38720
O727        O  0.25839791  0.92084042  0.00489997    -0.39420
O728        O  0.30366638  0.94310498  0.02436371    -0.39490
C729        C  0.03566508  0.82328308  0.62325250    -0.11770
C730        C  0.50411534  0.81312080  0.63258651     0.05230
C731        C  0.47733284  0.83099052  0.61771357    -0.07060
C732        C  0.48283601  0.85914863  0.59494348    -0.07800
C733        C  0.01426382  0.87067989  0.58725652    -0.02350
C734        C  0.04110709  0.85175973  0.60011850     0.04460
N735        N  0.07366729  0.86099628  0.59068356     0.66970
H736        H  0.05610092  0.80884898  0.63379371     0.15870
H737        H  0.46198034  0.87284078  0.58420866     0.15580
N738        N  0.44445924  0.82131555  0.62572794     0.74670
O739        O  0.09535065  0.85836609  0.61892223    -0.38780
O740        O  0.08201667  0.86503670  0.55259645    -0.38720
O741        O  0.43659035  0.80955867  0.66120779    -0.39420
O742        O  0.42239896  0.82808181  0.59914776    -0.39490
C743        C  0.01062281  0.67623246  0.64173368    -0.11770
C744        C  0.48386602  0.69623377  0.63573916     0.05230
C745        C  0.45766699  0.68627156  0.60978104    -0.07060
C746        C  0.45982230  0.65620939  0.59009260    -0.07800
C747        C  0.48689233  0.63600791  0.59603290    -0.02350
C748        C  0.01240896  0.64644147  0.62287264     0.04460
N749        N  0.04031525  0.62715045  0.63223820     0.66970
H750        H  0.03046885  0.68379887  0.66189292     0.15870
H751        H  0.44018548  0.64852577  0.56980731     0.15580
N752        N  0.42873079  0.70544305  0.60358271     0.74670
O753        O  0.06801358  0.63719515  0.62223587    -0.38840
O754        O  0.03800796  0.60425277  0.65845197    -0.38720
O755        O  0.42740912  0.73417685  0.61507215    -0.39420
O756        O  0.40398562  0.69355664  0.58628050    -0.39490
C757        C  0.48641984  0.82247761  0.40299187    -0.11770
C758        C  0.50709617  0.81510090  0.36950551     0.05230
C759        C  0.03269621  0.83618768  0.35911990    -0.07060
C760        C  0.03573095  0.86493638  0.38138268    -0.07800
C761        C  0.01428851  0.87255266  0.41394056    -0.02350
C762        C  0.48986692  0.85070820  0.42563482     0.04460
N763        N  0.46843538  0.85682258  0.46035621     0.66970
H764        H  0.46706040  0.80621844  0.41124334     0.15870
H765        H  0.05444799  0.88178154  0.37272578     0.15580
N766        N  0.05570781  0.82883295  0.32657400     0.74670
O767        O  0.43993253  0.84609528  0.45991926    -0.38780
O768        O  0.47923883  0.86890712  0.49397887    -0.38720
O769        O  0.06889772  0.85105597  0.30559053    -0.39420
O770        O  0.06546116  0.80049901  0.32165263    -0.39490
C771        C  0.01074244  0.68992085  0.39711485    -0.11770
C772        C  0.48586686  0.69802220  0.36833990     0.05230
C773        C  0.45955205  0.67679990  0.36294590    -0.07060
C774        C  0.45946151  0.64768148  0.38572890    -0.07800
C775        C  0.48461153  0.63969467  0.41401116    -0.02350
C776        C  0.01028728  0.66129243  0.42046383     0.04460
N777        N  0.03587255  0.65464845  0.45068898     0.66970
H778        H  0.03081077  0.70615209  0.40144140     0.15870
H779        H  0.43989385  0.63092291  0.38099388     0.15580
N780        N  0.43271802  0.68445567  0.33524433     0.74670
O781        O  0.06367970  0.66631261  0.44525563    -0.38780
O782        O  0.02999633  0.64004831  0.48504213    -0.38720
O783        O  0.41797591  0.66249876  0.31611614    -0.39420
O784        O  0.42137268  0.71250498  0.33345572    -0.39490
C785        C  0.18963434  0.50602591  0.59539578    -0.11770
C786        C  0.19346212  0.49575170  0.63771846     0.05230
C787        C  0.16894225  0.97622672  0.65592929    -0.07060
C788        C  0.14005793  0.97095264  0.63303180    -0.07800
C789        C  0.13622472  0.98229780  0.59132557    -0.02350
C790        C  0.16193565  0.49863926  0.57180764     0.04460
N791        N  0.15983294  0.50839896  0.52815175     0.66970
H792        H  0.20802020  0.52061076  0.58056041     0.15870
H793        H  0.12030939  0.95820921  0.64790593     0.15580
N794        N  0.17304318  0.96121140  0.69690609     0.74670
O795        O  0.17366397  0.53353561  0.51540475    -0.38780
O796        O  0.14836705  0.98940926  0.50132020    -0.38720
O797        O  0.14895455  0.45695659  0.72067560    -0.39420
O798        O  0.19990202  0.94881890  0.70736260    -0.39490
C799        C  0.36159889  0.49905111  0.62368755    -0.11770
C800        C  0.36950328  0.52500661  0.59661081     0.05230
C801        C  0.34723914  0.55086513  0.59321732    -0.07060
C802        C  0.31851278  0.55006346  0.61698962    -0.07800
C803        C  0.31114808  0.52401077  0.64363328    -0.02350
C804        C  0.33298019  0.49814320  0.64700991     0.04460
N805        N  0.32628288  0.97033528  0.67285688     0.66970
H806        H  0.37794730  0.97889321  0.62727637     0.15870
H807        H  0.30127626  0.56955750  0.61372494     0.15580
N808        N  0.35266032  0.57767187  0.56544303     0.74670
O809        O  0.33568949  0.94309416  0.66123102    -0.38780
O810        O  0.31462838  0.47316247  0.70947302    -0.38720
O811        O  0.35495856  0.57339687  0.52607418    -0.39420
O812        O  0.34799593  0.60563011  0.57869863    -0.39490
C813        C  0.15168137  0.51412808  0.41323689    -0.11770
C814        C  0.13287595  0.98696333  0.40561473     0.05230
C815        C  0.14412195  0.96367069  0.37694243    -0.07060
C816        C  0.17445089  0.96849643  0.35738971    -0.07800
C817        C  0.19283168  0.49614202  0.36487425    -0.02350
C818        C  0.18100927  0.51930937  0.39292104     0.04460
N819        N  0.19696480  0.54941672  0.39854643     0.66970
H820        H  0.14252643  0.53251829  0.43393676     0.15870
H821        H  0.18331282  0.95129594  0.33484025     0.15580
N822        N  0.12479202  0.93645692  0.36529546     0.74670
O823        O  0.20586014  0.56554648  0.36663899    -0.38780
O824        O  0.19705617  0.56240889  0.43443630    -0.38720
O825        O  0.09446486  0.93671654  0.36973070    -0.39420
O826        O  0.13763364  0.91312742  0.34668401    -0.39490
C827        C  0.34281921  0.53773435  0.42511555    -0.11770
C828        C  0.37139412  0.53284580  0.40266745     0.05230
C829        C  0.36982234  0.52879870  0.35825697    -0.07060
C830        C  0.33939545  0.52511992  0.33878807    -0.07800
C831        C  0.31028735  0.52876490  0.36135070    -0.02350
C832        C  0.31251098  0.53723295  0.40479817     0.04460
N833        N  0.28469411  0.54679542  0.42840207     0.66970
H834        H  0.34405243  0.54168802  0.45888127     0.15870
H835        H  0.33874228  0.51892379  0.30568088     0.15580
N836        N  0.39861398  0.52906616  0.33252001     0.74670
O837        O  0.28137658  0.03752687  0.46637315    -0.38780
O838        O  0.26648206  0.56863661  0.41383437    -0.38720
O839        O  0.42377172  0.54322017  0.34505500    -0.39420
O840        O  0.39742163  0.51989299  0.29456775    -0.39490
O841        O  0.91772176  0.50209419  0.41691077    -0.74790
O842        O  0.91028399  0.04751015  0.45522025    -0.53700
C843        C  0.90183358  0.02742263  0.42653756     0.78930
O844        O  0.99281371  0.42192748  0.58014766    -0.59400
O845        O  0.53892638  0.41172371  0.54357873    -0.52430
C846        C  0.51631626  0.40364409  0.56951080     0.70950
O847        O  0.91789194  0.49786655  0.58098859    -0.73950
O848        O  0.91044636  0.04620392  0.54902894    -0.54520
C849        C  0.90119553  0.02333038  0.57383428     0.76950
O850        O  0.98868960  0.42170624  0.42312639    -0.59100
O851        O  0.53836771  0.41384745  0.45418268    -0.52220
C852        C  0.51420076  0.40494442  0.43122878     0.73540
Zr853      Zr  0.96681699  0.47423431  0.43850492     2.54710
O854        O  0.92252936  0.43611909  0.43742360    -0.79660
O855        O  0.97202477  0.47514581  0.36167981    -0.93080
Zr856      Zr  0.96898563  0.47326746  0.56391650     2.64680
O857        O  0.92558943  0.43427494  0.56946796    -0.98040
O858        O  0.97452342  0.47610855  0.64067036    -0.80100
O859        O  0.94517052  0.49542397  0.50170089    -0.83450
O860        O  0.98910293  0.45124182  0.50089736    -2.18160
O861        O  0.58383241  0.01251704  0.41668042    -0.66840
O862        O  0.59222664  0.46484528  0.45129696    -0.51410
C863        C  0.60051390  0.48726147  0.42507115     0.71930
O864        O  0.51403776  0.08780980  0.58018325    -0.59750
O865        O  0.96505892  0.09664904  0.54885392    -0.51730
C866        C  0.98858231  0.10483878  0.57354594     0.73730
O867        O  0.58782331  0.01018922  0.58168736    -0.71150
O868        O  0.59381273  0.46321016  0.54628254    -0.49820
C869        C  0.60356098  0.48472916  0.57235635     0.75110
O870        O  0.51154954  0.09103584  0.42350867    -0.66480
O871        O  0.96315885  0.09798955  0.45692221    -0.53670
C872        C  0.98618699  0.10737379  0.43254113     0.73490
Zr873      Zr  0.53453128  0.03865878  0.43800653     2.77540
O874        O  0.57708864  0.07873932  0.43594229    -0.97230
O875        O  0.52862707  0.03832200  0.36118401    -0.78050
Zr876      Zr  0.53722733  0.03656500  0.56292157     2.70070
O877        O  0.58034793  0.07593766  0.56430886    -0.79290
O878        O  0.53414172  0.03248412  0.63982149    -0.98380
Zr879      Zr  0.95735892  0.05096543  0.50233439     2.21500
Zr880      Zr  0.54620577  0.45986880  0.49962977     2.11130
O881        O  0.55843842  0.01559796  0.49966525    -2.47060
O882        O  0.51423432  0.06044123  0.50124989    -0.79090
O883        O  0.52333848  0.48319255  0.43637307    -0.71280
O884        O  0.98063871  0.02823021  0.56553009    -2.32240
O885        O  0.97821960  0.02960688  0.43796208    -2.28450
O886        O  0.52565728  0.48130985  0.56405292    -0.73040
H887        H  0.98408115  0.42880380  0.50122136     0.78950
H888        H  0.97158715  0.03774410  0.59055802     0.80040
H889        H  0.58152130  0.01904033  0.49919428     0.82270
H890        H  0.96854566  0.04002293  0.41345408     0.79870
H891        H  0.96113392  0.49469554  0.64878366     0.42910
H892        H  0.53445901  0.00923513  0.64601247     0.41880
H893        H  0.57808021  0.08768661  0.53699065     0.41560
H894        H  0.59403479  0.07058591  0.45567941     0.39490
H895        H  0.53535927  0.01654693  0.35294911     0.42620
H896        H  0.97329085  0.49807732  0.35387042     0.37410
H897        H  0.92420425  0.42466973  0.46502353     0.43520
H898        H  0.93108997  0.41754383  0.54879823     0.39940
H899        H  0.58673118  0.07691968  0.40743442     0.44860
H900        H  0.95057732  0.46834613  0.35101677     0.43580
H901        H  0.92865699  0.42392116  0.59762205     0.43720
H902        H  0.55545627  0.04006092  0.64997165     0.44070
C903        C  0.98859769  0.22874208  0.34467187     0.03630
C904        C  0.99583690  0.25669237  0.36683287    -0.12520
C905        C  0.00018286  0.28584777  0.34531150     0.01130
C906        C  0.99627985  0.28719779  0.30120084    -0.11050
C907        C  0.98948683  0.25942437  0.27867500     0.03620
C908        C  0.98603247  0.23014614  0.30026965    -0.10470
H909        H  0.99829097  0.25572750  0.40106168     0.09210
H910        H  0.99893139  0.30975003  0.28431109     0.06740
H911        H  0.98161009  0.20857270  0.28255318     0.06590
C912        C  0.72271814  0.00234538  0.34052769     0.03630
C913        C  0.75211770  0.00878441  0.36142056    -0.12520
C914        C  0.77859041  0.02203917  0.33927450     0.01130
C915        C  0.77513810  0.02700967  0.29502640    -0.11050
C916        C  0.74695261  0.01769984  0.27365971     0.03620
C917        C  0.72072814  0.00578210  0.29648459    -0.10470
H918        H  0.75379192  0.00366127  0.39502561     0.09210
H919        H  0.79439194  0.03755414  0.27658525     0.06740
H920        H  0.69842416  0.00004769  0.28000169     0.06590
C921        C  0.72221170  0.00746844  0.66211851     0.03630
C922        C  0.75251774  0.01076529  0.64231746    -0.12520
C923        C  0.77928021  0.02277635  0.66445620     0.01130
C924        C  0.77628924  0.03051324  0.70732692    -0.11050
C925        C  0.74671451  0.02622272  0.72791393     0.03620
C926        C  0.71951974  0.01625920  0.70485972    -0.10470
H927        H  0.75570636  0.00333032  0.60985314     0.09210
H928        H  0.79746152  0.03764369  0.72528308     0.06740
H929        H  0.69661068  0.01410298  0.72103880     0.06590
C930        C  0.98512645  0.22707128  0.65761166     0.03630
C931        C  0.99374862  0.25477538  0.63509052    -0.12520
C932        C  0.99912248  0.28331214  0.65661068     0.01130
C933        C  0.99626415  0.28411369  0.70078446    -0.11050
C934        C  0.98750678  0.25655608  0.72342798     0.03620
C935        C  0.98221374  0.22797946  0.70188194    -0.10470
H936        H  0.99621574  0.25412977  0.60092360     0.09210
H937        H  0.00019435  0.30629885  0.71737656     0.06740
H938        H  0.97650481  0.20636812  0.71955137     0.06590
C939        C  0.74586318  0.48863837  0.16114040     0.03630
C940        C  0.75131048  0.49024058  0.20508300    -0.12520
C941        C  0.74525699  0.01835600  0.22709905     0.01130
C942        C  0.73621008  0.04611173  0.20486931    -0.11050
C943        C  0.73283026  0.04577170  0.16052591     0.03620
C944        C  0.73679914  0.01683612  0.13886654    -0.10470
H945        H  0.75956563  0.46930161  0.22266766     0.09210
H946        H  0.73255926  0.06815191  0.22189683     0.06740
H947        H  0.73347916  0.01654068  0.10478928     0.06590
O948        O  0.73029958  0.35029352  0.91283196    -0.74790
O949        O  0.77739683  0.35930126  0.94878956    -0.53700
C950        C  0.75574871  0.36696883  0.92061225     0.78930
O951        O  0.65311066  0.27706736  0.08039802    -0.59400
O952        O  0.64494578  0.22967977  0.04725422    -0.52430
C953        C  0.63662111  0.25171270  0.07323279     0.70950
O954        O  0.72804656  0.35226757  0.07881722    -0.73950
O955        O  0.77573265  0.36047468  0.04431517    -0.54520
C956        C  0.75347995  0.36867873  0.07083563     0.76950
O957        O  0.65379493  0.27491527  0.91610585    -0.59100
O958        O  0.64543904  0.22801953  0.95178013    -0.52220
C959        C  0.63725179  0.24963052  0.92408610     0.73540
Zr960      Zr  0.70432175  0.30055925  0.93464062     2.54710
O961        O  0.66294761  0.34195652  0.92836242    -0.79660
O962        O  0.70813869  0.29343870  0.85845727    -0.93080
Zr963      Zr  0.70257699  0.30304779  0.05860866     2.64680
O964        O  0.66131555  0.34458378  0.05185342    -0.98040
O965        O  0.70233480  0.30346309  0.13579315    -0.80100
O966        O  0.72570075  0.32469304  0.99609748    -0.83450
O967        O  0.68035938  0.27997318  0.99714713    -2.18160
O968        O  0.74650473  0.18201184  0.92485246    -0.66840
O969        O  0.69733066  0.17642304  0.95682084    -0.51410
C970        C  0.72054248  0.16638243  0.93328129     0.71930
O971        O  0.82018118  0.26121532  0.08205159    -0.59750
O972        O  0.82948058  0.30792786  0.04635433    -0.51730
C973        C  0.83741023  0.28586663  0.07365508     0.73730
O974        O  0.74351578  0.18836149  0.08642573    -0.71150
O975        O  0.69840273  0.17686567  0.04808132    -0.49820
C976        C  0.71997660  0.16988975  0.07665124     0.75110
O977        O  0.81979341  0.25976703  0.91805892    -0.66480
O978        O  0.82854209  0.30778619  0.94943758    -0.53670
C979        C  0.83608582  0.28551136  0.92315079     0.73490
Zr980      Zr  0.77051074  0.23381244  0.94008501     2.77540
O981        O  0.81430932  0.19468466  0.94276811    -0.97230
O982        O  0.76546971  0.23269140  0.86320893    -0.78050
Zr983      Zr  0.76913756  0.23739669  0.06433590     2.70070
O984        O  0.80989578  0.19540782  0.07059962    -0.79290
O985        O  0.76575951  0.24394273  0.14072792    -0.98380
Zr986      Zr  0.78257792  0.31368417  0.99819857     2.21500
Zr987      Zr  0.69153469  0.22374829  0.00078737     2.11130
O988        O  0.74829038  0.21297147  0.00312283    -2.47060
O989        O  0.79310200  0.25736732  0.00149078    -0.79090
O990        O  0.71437821  0.24473684  0.93687286    -0.71280
O991        O  0.75892871  0.29284410  0.06187831    -2.32240
O992        O  0.76038594  0.28959427  0.93592645    -2.28450
O993        O  0.71288119  0.24746331  0.06356728    -0.73040
H994        H  0.65732911  0.28397677  0.99642776     0.78950
H995        H  0.76835331  0.30263526  0.08659035     0.80040
H996        H  0.75274270  0.19034598  0.00483430     0.82270
H997        H  0.77006904  0.29852443  0.91068272     0.79870
H998        H  0.72544388  0.30408229  0.14421274     0.42910
H999        H  0.74307317  0.23865508  0.14770889     0.41880
H1000       H  0.81909297  0.19388897  0.04180666     0.41560
H1001       H  0.80646588  0.17740075  0.96174514     0.39490
H1002       H  0.74218617  0.22893830  0.85772078     0.42620
H1003       H  0.73149799  0.29457439  0.85204527     0.37410
H1004       H  0.66457150  0.35378965  0.95525644     0.43520
H1005       H  0.64345784  0.33468787  0.03566490     0.39940
H1006       H  0.81437547  0.18515026  0.91421074     0.44860
H1007       H  0.69868406  0.31321615  0.84595723     0.43580
H1008       H  0.65271817  0.34686842  0.08087380     0.43720
H1009       H  0.77861922  0.22592503  0.15274823     0.44070
C1010       C  0.95862852  0.27309689  0.16679746     0.03630
C1011       C  0.96032454  0.27249351  0.21137768    -0.12520
C1012       C  0.98800783  0.26095493  0.23226622     0.01130
C1013       C  0.51522287  0.25255449  0.20903617    -0.11050
C1014       C  0.51588675  0.25765918  0.16503441     0.03620
C1015       C  0.98704333  0.26661798  0.14382429    -0.10470
H1016       H  0.93973957  0.27986202  0.22998511     0.09210
H1017       H  0.53658440  0.24378382  0.22568516     0.06740
H1018       H  0.98681629  0.26859652  0.10959850     0.06590
C1019       C  0.74806990  0.49161443  0.83839186     0.03630
C1020       C  0.75156667  0.49535007  0.79450443    -0.12520
C1021       C  0.74568884  0.02480517  0.77448067     0.01130
C1022       C  0.73732267  0.05141132  0.79856382    -0.11050
C1023       C  0.73302043  0.04830780  0.84275422     0.03620
C1024       C  0.73819112  0.01807377  0.86227075    -0.10470
H1025       H  0.75862053  0.47508926  0.77552869     0.09210
H1026       H  0.73409886  0.07435375  0.78279013     0.06740
H1027       H  0.73438521  0.01502473  0.89601052     0.06590
C1028       C  0.95695390  0.27058644  0.83458923     0.03630
C1029       C  0.95822928  0.26901527  0.79000994    -0.12520
C1030       C  0.98577580  0.25736596  0.76985576     0.01130
C1031       C  0.51273316  0.24822347  0.79383865    -0.11050
C1032       C  0.51295612  0.25141645  0.83801948     0.03620
C1033       C  0.98469714  0.26178808  0.85852116    -0.10470
H1034       H  0.93768601  0.27665998  0.77081281     0.09210
H1035       H  0.53432176  0.24009987  0.77777863     0.06740
H1036       H  0.98455451  0.26344259  0.89274429     0.06590
C1037       C  0.70023025  0.12941254  0.87833415    -0.11770
C1038       C  0.71851879  0.13406167  0.91528297     0.05230
C1039       C  0.73880657  0.10918993  0.93075760    -0.07060
C1040       C  0.74224001  0.08126851  0.90697905    -0.07800
C1041       C  0.72507161  0.07687997  0.86886504    -0.02350
C1042       C  0.70261210  0.10084070  0.85540350     0.04460
N1043       N  0.68193257  0.09655098  0.81905276     0.66970
H1044       H  0.68439166  0.14841481  0.86692241     0.15870
H1045       H  0.75916796  0.06307397  0.91790970     0.15580
N1046       N  0.75629685  0.11205184  0.97019239     0.74670
O1047       O  0.66911997  0.06976229  0.81223453    -0.38780
O1048       O  0.67367168  0.12026568  0.79622284    -0.38720
O1049       O  0.74404968  0.12705547  0.00061362    -0.39420
O1050       O  0.78202573  0.09628153  0.97665015    -0.39490
C1051       C  0.77584540  0.42364972  0.91281263    -0.11770
C1052       C  0.75893845  0.39758648  0.89586023     0.05230
C1053       C  0.74222276  0.40216930  0.85684228    -0.07060
C1054       C  0.73869965  0.43298550  0.83954300    -0.07800
C1055       C  0.75337744  0.45948208  0.85830406    -0.02350
C1056       C  0.77331537  0.45452958  0.89449633     0.04460
N1057       N  0.79158612  0.48027680  0.91235590     0.66970
H1058       H  0.79114894  0.42003408  0.94039713     0.15870
H1059       H  0.72464298  0.43621295  0.81065789     0.15580
N1060       N  0.73055650  0.37556270  0.83298738     0.74670
O1061       O  0.79500662  0.48228764  0.95199545    -0.38780
O1062       O  0.80629373  0.49979259  0.88859263    -0.38720
O1063       O  0.70464622  0.37801255  0.81170773    -0.39420
O1064       O  0.74899359  0.35193824  0.82701402    -0.39490
C1065       C  0.86887051  0.27204081  0.13825042    -0.11770
C1066       C  0.86818616  0.28750210  0.09841037     0.05230
C1067       C  0.89732601  0.30003825  0.08220891    -0.07060
C1068       C  0.92606620  0.29696083  0.10625954    -0.07800
C1069       C  0.92705510  0.27919624  0.14455856    -0.02350
C1070       C  0.89779651  0.26620924  0.16018809     0.04460
N1071       N  0.89713734  0.24454911  0.19589927     0.66970
H1072       H  0.84686378  0.26192729  0.15109012     0.15870
H1073       H  0.94814536  0.30696491  0.09360835     0.15580
N1074       N  0.89901903  0.31243461  0.03977644     0.74670
O1075       O  0.87484906  0.24667324  0.22288640    -0.38780
O1076       O  0.91544676  0.22030641  0.19679212    -0.38720
O1077       O  0.91662577  0.33624904  0.03153748    -0.39420
O1078       O  0.88852035  0.29575585  0.00969581    -0.39490
C1079       C  0.60519080  0.26302120  0.13753374    -0.11770
C1080       C  0.60610522  0.24883654  0.09745804     0.05230
C1081       C  0.57705490  0.23708614  0.07983410    -0.07060
C1082       C  0.54805970  0.23980147  0.10251167    -0.07800
C1083       C  0.54708762  0.25491084  0.14201615    -0.02350
C1084       C  0.57615302  0.26732612  0.15917523     0.04460
N1085       N  0.57644796  0.28643780  0.19674257     0.66970
H1086       H  0.62711883  0.27285355  0.15105729     0.15870
H1087       H  0.52607449  0.23026582  0.08882555     0.15580
N1088       N  0.57584573  0.22488544  0.03773778     0.74670
O1089       O  0.59953205  0.28385734  0.22302728    -0.38780
O1090       O  0.55624833  0.30890793  0.20075528    -0.38720
O1091       O  0.58935248  0.19858666  0.02962556    -0.39420
O1092       O  0.55622333  0.23705732  0.01120656    -0.39490
C1093       C  0.89338103  0.30392784  0.91076902    -0.11770
C1094       C  0.86556815  0.28813866  0.89632821     0.05230
C1095       C  0.86736658  0.27099219  0.85796978    -0.07060
C1096       C  0.89737529  0.26573770  0.83923347    -0.07800
C1097       C  0.92580524  0.27932551  0.85532471    -0.02350
C1098       C  0.92350081  0.30005068  0.89048716     0.04460
N1099       N  0.95099351  0.31772451  0.90541176     0.66970
H1100       H  0.89174265  0.31923063  0.93797738     0.15870
H1101       H  0.89840104  0.25069549  0.81160050     0.15580
N1102       N  0.83877764  0.25949307  0.83697934     0.74670
O1103       O  0.97084253  0.32956149  0.87941920    -0.38780
O1104       O  0.95350950  0.32469011  0.94410939    -0.38720
O1105       O  0.81432170  0.27750506  0.83290015    -0.39420
O1106       O  0.83940205  0.23334364  0.81748427    -0.39490
C1107       C  0.56998736  0.26639275  0.84459998    -0.11770
C1108       C  0.54438642  0.24827396  0.86073500     0.05230
C1109       C  0.54998392  0.22773732  0.89616040    -0.07060
C1110       C  0.58088761  0.22761412  0.91577317    -0.07800
C1111       C  0.60629518  0.24652716  0.89992977    -0.02350
C1112       C  0.60083769  0.26478383  0.86241195     0.04460
N1113       N  0.62669357  0.28045700  0.84045931     0.66970
H1114       H  0.56616747  0.28145780  0.81676227     0.15870
H1115       H  0.58521626  0.21255450  0.94337321     0.15580
N1116       N  0.52533705  0.20638271  0.91164405     0.74670
O1117       O  0.65084196  0.26432087  0.82880479    -0.38780
O1118       O  0.62289038  0.30856010  0.82617673    -0.38720
O1119       O  0.50439240  0.19515201  0.88668811    -0.39420
O1120       O  0.52664612  0.19569087  0.94922510    -0.39490
C1121       C  0.70058843  0.08416481  0.11494437    -0.11770
C1122       C  0.72931557  0.07654750  0.13710767     0.05230
C1123       C  0.75399363  0.09952739  0.13976965    -0.07060
C1124       C  0.74919567  0.12960214  0.12112177    -0.07800
C1125       C  0.72053672  0.13791287  0.09880930    -0.02350
C1126       C  0.69568205  0.11470668  0.09615137     0.04460
N1127       N  0.66510283  0.12184092  0.07623720     0.66970
H1128       H  0.68139281  0.06665446  0.11369917     0.15870
H1129       H  0.76904298  0.14630991  0.12311540     0.15580
N1130       N  0.78443950  0.09257619  0.16056071     0.74670
O1131       O  0.65107403  0.10088236  0.05443116    -0.38780
O1132       O  0.64954557  0.14655856  0.08649487    -0.38720
O1133       O  0.79803469  0.06575861  0.15613382    -0.39420
O1134       O  0.79951618  0.11435715  0.17960112    -0.39490
C1135       C  0.74241881  0.39975284  0.13555890    -0.11770
C1136       C  0.75592875  0.39899936  0.09484624     0.05230
C1137       C  0.76729506  0.42775358  0.07679505    -0.07060
C1138       C  0.76484890  0.45640796  0.09939414    -0.07800
C1139       C  0.74952282  0.45744134  0.13906178    -0.02350
C1140       C  0.73801743  0.42845053  0.15713342     0.04460
N1141       N  0.71979786  0.42774586  0.19576259     0.66970
H1142       H  0.73316802  0.37793412  0.14973217     0.15870
H1143       H  0.77376025  0.47824568  0.08494964     0.15580
N1144       N  0.77778386  0.42893223  0.03385099     0.74670
O1145       O  0.69631473  0.44672572  0.20058851    -0.38780
O1146       O  0.72438417  0.40551758  0.22262079    -0.38720
O1147       O  0.75839778  0.42084045  0.00489996    -0.39420
O1148       O  0.80366627  0.44310500  0.02436360    -0.39490
C1149       C  0.53566501  0.32328308  0.62325247    -0.11770
C1150       C  0.00411527  0.31312079  0.63258651     0.05230
C1151       C  0.97733276  0.33099051  0.61771358    -0.07060
C1152       C  0.98283591  0.35914862  0.59494350    -0.07800
C1153       C  0.51426373  0.37067990  0.58725652    -0.02350
C1154       C  0.54110700  0.35175973  0.60011847     0.04460
N1155       N  0.57366720  0.36099628  0.59068352     0.66970
H1156       H  0.55610086  0.30884897  0.63379366     0.15870
H1157       H  0.96198024  0.37284077  0.58420868     0.15580
N1158       N  0.94445916  0.32131554  0.62572797     0.74670
O1159       O  0.59535057  0.35836611  0.61892218    -0.38780
O1160       O  0.58201658  0.36503668  0.55259640    -0.38720
O1161       O  0.93659029  0.30955864  0.66120782    -0.39420
O1162       O  0.92239887  0.32808180  0.59914781    -0.39490
C1163       C  0.51062281  0.17623246  0.64173366    -0.11770
C1164       C  0.98386603  0.19623375  0.63573917     0.05230
C1165       C  0.95766702  0.18627154  0.60978103    -0.07060
C1166       C  0.95982234  0.15620937  0.59009260    -0.07800
C1167       C  0.98689236  0.13600789  0.59603291    -0.02350
C1168       C  0.51240897  0.14644146  0.62287262     0.04460
N1169       N  0.54031526  0.12715045  0.63223819     0.66970
H1170       H  0.53046884  0.18379887  0.66189291     0.15870
H1171       H  0.94018552  0.14852574  0.56980729     0.15580
N1172       N  0.92873080  0.20544301  0.60358269     0.74670
O1173       O  0.56801360  0.13719516  0.62223588    -0.38840
O1174       O  0.53800797  0.10425276  0.65845195    -0.38720
O1175       O  0.92740913  0.23417682  0.61507213    -0.39420
O1176       O  0.90398564  0.19355660  0.58628048    -0.39490
C1177       C  0.98641976  0.32247763  0.40299184    -0.11770
C1178       C  0.00709609  0.31510092  0.36950549     0.05230
C1179       C  0.53269615  0.33618770  0.35911988    -0.07060
C1180       C  0.53573088  0.36493640  0.38138266    -0.07800
C1181       C  0.51428845  0.37255267  0.41394055    -0.02350
C1182       C  0.98986683  0.35070822  0.42563478     0.04460
N1183       N  0.96843529  0.35682261  0.46035617     0.66970
H1184       H  0.96706033  0.30621845  0.41124332     0.15870
H1185       H  0.55444792  0.38178156  0.37272577     0.15580
N1186       N  0.55570775  0.32883298  0.32657397     0.74670
O1187       O  0.93993244  0.34609529  0.45991923    -0.38780
O1188       O  0.97923874  0.36890715  0.49397883    -0.38720
O1189       O  0.56889765  0.35105601  0.30559051    -0.39420
O1190       O  0.56546111  0.30049904  0.32165260    -0.39490
C1191       C  0.51074246  0.18992085  0.39711483    -0.11770
C1192       C  0.98586686  0.19802220  0.36833990     0.05230
C1193       C  0.95955206  0.17679988  0.36294589    -0.07060
C1194       C  0.95946153  0.14768146  0.38572889    -0.07800
C1195       C  0.98461157  0.13969466  0.41401115    -0.02350
C1196       C  0.51028731  0.16129243  0.42046380     0.04460
N1197       N  0.53587258  0.15464846  0.45068894     0.66970
H1198       H  0.53081078  0.20615210  0.40144138     0.15870
H1199       H  0.93989389  0.13092288  0.38099386     0.15580
N1200       N  0.93271803  0.18445564  0.33524432     0.74670
O1201       O  0.56367973  0.16631264  0.44525561    -0.38780
O1202       O  0.52999637  0.14004831  0.48504209    -0.38720
O1203       O  0.91797594  0.16249872  0.31611613    -0.39420
O1204       O  0.92137267  0.21250494  0.33345571    -0.39490
C1205       C  0.68963442  0.00602594  0.59539579    -0.11770
C1206       C  0.69346220  0.99575173  0.63771847     0.05230
C1207       C  0.66894219  0.47622671  0.65592929    -0.07060
C1208       C  0.64005787  0.47095263  0.63303180    -0.07800
C1209       C  0.63622464  0.48229780  0.59132559    -0.02350
C1210       C  0.66193574  0.99863930  0.57180763     0.04460
N1211       N  0.65983304  0.00839901  0.52815175     0.66970
H1212       H  0.70802028  0.02061080  0.58056043     0.15870
H1213       H  0.62030934  0.45820919  0.64790594     0.15580
N1214       N  0.67304313  0.46121139  0.69690609     0.74670
O1215       O  0.67366411  0.03353564  0.51540474    -0.38780
O1216       O  0.64836697  0.48940930  0.50132021    -0.38720
O1217       O  0.64895461  0.95695659  0.72067557    -0.39420
O1218       O  0.69990199  0.44881890  0.70736259    -0.39490
C1219       C  0.86159896  0.99905107  0.62368754    -0.11770
C1220       C  0.86950335  0.02500659  0.59661082     0.05230
C1221       C  0.84723922  0.05086510  0.59321735    -0.07060
C1222       C  0.81851286  0.05006344  0.61698967    -0.07800
C1223       C  0.81114817  0.02401074  0.64363331    -0.02350
C1224       C  0.83298026  0.99814316  0.64700991     0.04460
N1225       N  0.82628285  0.47033539  0.67285701     0.66970
H1226       H  0.87794727  0.47889330  0.62727650     0.15870
H1227       H  0.80127636  0.06955749  0.61372500     0.15580
N1228       N  0.85266040  0.07767185  0.56544306     0.74670
O1229       O  0.83568941  0.44309425  0.66123116    -0.38780
O1230       O  0.81462838  0.97316240  0.70947296    -0.38720
O1231       O  0.85495860  0.07339685  0.52607420    -0.39420
O1232       O  0.84799603  0.10563009  0.57869867    -0.39490
C1233       C  0.65168144  0.01412808  0.41323685    -0.11770
C1234       C  0.63287589  0.48696333  0.40561474     0.05230
C1235       C  0.64412189  0.46367070  0.37694244    -0.07060
C1236       C  0.67445083  0.46849644  0.35738971    -0.07800
C1237       C  0.69283175  0.99614201  0.36487422    -0.02350
C1238       C  0.68100933  0.01930937  0.39292099     0.04460
N1239       N  0.69696486  0.04941673  0.39854635     0.66970
H1240       H  0.64252650  0.03251830  0.43393671     0.15870
H1241       H  0.68331276  0.45129596  0.33484024     0.15580
N1242       N  0.62479196  0.43645693  0.36529546     0.74670
O1243       O  0.70586022  0.06554647  0.36663890    -0.38780
O1244       O  0.69705620  0.06240893  0.43443621    -0.38720
O1245       O  0.59446481  0.43671654  0.36973072    -0.39420
O1246       O  0.63763359  0.41312743  0.34668400    -0.39490
C1247       C  0.84281927  0.03773432  0.42511553    -0.11770
C1248       C  0.87139418  0.03284580  0.40266743     0.05230
C1249       C  0.86982241  0.02879874  0.35825694    -0.07060
C1250       C  0.83939552  0.02511995  0.33878804    -0.07800
C1251       C  0.81028742  0.02876490  0.36135067    -0.02350
C1252       C  0.81251105  0.03723292  0.40479816     0.04460
N1253       N  0.78469417  0.04679537  0.42840206     0.66970
H1254       H  0.84405249  0.04168796  0.45888126     0.15870
H1255       H  0.83874235  0.01892385  0.30568084     0.15580
N1256       N  0.89861404  0.02906624  0.33251998     0.74670
O1257       O  0.78137643  0.53752706  0.46637308    -0.38780
O1258       O  0.76648212  0.06863657  0.41383439    -0.38720
O1259       O  0.92377182  0.04322015  0.34505506    -0.39420
O1260       O  0.89742166  0.01989325  0.29456763    -0.39490
O1261       O  0.91772182  0.00209416  0.41691075    -0.74790
O1262       O  0.91028392  0.54751017  0.45522028    -0.53700
C1263       C  0.90183351  0.52742265  0.42653758     0.78930
O1264       O  0.99281382  0.92192747  0.58014766    -0.59400
O1265       O  0.53892645  0.91172370  0.54357875    -0.52430
C1266       C  0.51631633  0.90364409  0.56951081     0.70950
O1267       O  0.91789203  0.99786650  0.58098858    -0.73950
O1268       O  0.91044631  0.54620399  0.54902898    -0.54520
C1269       C  0.90119547  0.52333044  0.57383431     0.76950
O1270       O  0.98868968  0.92170622  0.42312640    -0.59100
O1271       O  0.53836779  0.91384744  0.45418270    -0.52220
C1272       C  0.51420084  0.90494439  0.43122881     0.73540
Zr1273     Zr  0.96681706  0.97423430  0.43850491     2.54710
O1274       O  0.92252944  0.93611907  0.43742360    -0.79660
O1275       O  0.97202486  0.97514578  0.36167981    -0.93080
Zr1276     Zr  0.96898573  0.97326745  0.56391650     2.64680
O1277       O  0.92558955  0.93427491  0.56946799    -0.98040
O1278       O  0.97452353  0.97610856  0.64067035    -0.80100
O1279       O  0.94517060  0.99542394  0.50170089    -0.83450
O1280       O  0.98910302  0.95124181  0.50089735    -2.18160
O1281       O  0.58383234  0.51251706  0.41668043    -0.66840
O1282       O  0.59222671  0.96484527  0.45129697    -0.51410
C1283       C  0.60051397  0.98726146  0.42507115     0.71930
O1284       O  0.51403771  0.58780980  0.58018327    -0.59750
O1285       O  0.96505888  0.59664907  0.54885391    -0.51730
C1286       C  0.98858227  0.60483880  0.57354594     0.73730
O1287       O  0.58782324  0.51018921  0.58168737    -0.71150
O1288       O  0.59381279  0.96321016  0.54628255    -0.49820
C1289       C  0.60356104  0.98472917  0.57235635     0.75110
O1290       O  0.51154948  0.59103585  0.42350870    -0.66480
O1291       O  0.96315881  0.59798957  0.45692221    -0.53670
C1292       C  0.98618695  0.60737380  0.43254114     0.73490
Zr1293     Zr  0.53453121  0.53865879  0.43800655     2.77540
O1294       O  0.57708857  0.57873933  0.43594226    -0.97230
O1295       O  0.52862696  0.53832198  0.36118403    -0.78050
Zr1296     Zr  0.53722727  0.53656499  0.56292160     2.70070
O1297       O  0.58034788  0.57593764  0.56430889    -0.79290
O1298       O  0.53414165  0.53248411  0.63982151    -0.98380
Zr1299     Zr  0.95735886  0.55096546  0.50233440     2.21500
Zr1300     Zr  0.54620584  0.95986879  0.49962977     2.11130
O1301       O  0.55843836  0.51559797  0.49966527    -2.47060
O1302       O  0.51423426  0.56044124  0.50124992    -0.79090
O1303       O  0.52333855  0.98319254  0.43637306    -0.71280
O1304       O  0.98063864  0.52823022  0.56553010    -2.32240
O1305       O  0.97821954  0.52960690  0.43796209    -2.28450
O1306       O  0.52565735  0.98130985  0.56405291    -0.73040
H1307       H  0.98408125  0.92880379  0.50122136     0.78950
H1308       H  0.97158707  0.53774411  0.59055803     0.80040
H1309       H  0.58152124  0.51904033  0.49919429     0.82270
H1310       H  0.96854561  0.54002295  0.41345409     0.79870
H1311       H  0.96113402  0.99469554  0.64878365     0.42910
H1312       H  0.53445895  0.50923512  0.64601248     0.41880
H1313       H  0.57808017  0.58768658  0.53699067     0.41560
H1314       H  0.59403473  0.57058593  0.45567938     0.39490
H1315       H  0.53535901  0.51654685  0.35294916     0.42620
H1316       H  0.97329104  0.99807728  0.35387042     0.37410
H1317       H  0.92420433  0.92466970  0.46502353     0.43520
H1318       H  0.93109008  0.91754381  0.54879824     0.39940
H1319       H  0.58673111  0.57691967  0.40743439     0.44860
H1320       H  0.95057737  0.96834619  0.35101675     0.43580
H1321       H  0.92865712  0.92392112  0.59762207     0.43720
H1322       H  0.55545620  0.54006091  0.64997168     0.44070
C1323       C  0.98859771  0.72874209  0.34467187     0.03630
C1324       C  0.99583694  0.75669237  0.36683288    -0.12520
C1325       C  0.00018292  0.78584776  0.34531151     0.01130
C1326       C  0.99627990  0.78719778  0.30120085    -0.11050
C1327       C  0.98948685  0.75942437  0.27867500     0.03620
C1328       C  0.98603248  0.73014614  0.30026966    -0.10470
H1329       H  0.99829101  0.75572750  0.40106168     0.09210
H1330       H  0.99893145  0.80975002  0.28431110     0.06740
H1331       H  0.98161009  0.70857271  0.28255319     0.06590
C1332       C  0.72271807  0.50234538  0.34052769     0.03630
C1333       C  0.75211763  0.50878441  0.36142057    -0.12520
C1334       C  0.77859035  0.52203916  0.33927451     0.01130
C1335       C  0.77513805  0.52700966  0.29502641    -0.11050
C1336       C  0.74695256  0.51769984  0.27365972     0.03620
C1337       C  0.72072808  0.50578211  0.29648459    -0.10470
H1338       H  0.75379185  0.50366127  0.39502562     0.09210
H1339       H  0.79439189  0.53755413  0.27658527     0.06740
H1340       H  0.69842410  0.50004771  0.28000169     0.06590
C1341       C  0.72221164  0.50746846  0.66211849     0.03630
C1342       C  0.75251767  0.51076535  0.64231744    -0.12520
C1343       C  0.77928013  0.52277643  0.66445621     0.01130
C1344       C  0.77628915  0.53051330  0.70732693    -0.11050
C1345       C  0.74671442  0.52622275  0.72791393     0.03620
C1346       C  0.71951966  0.51625920  0.70485971    -0.10470
H1347       H  0.75570631  0.50333040  0.60985312     0.09210
H1348       H  0.79746141  0.53764378  0.72528309     0.06740
H1349       H  0.69661061  0.51410295  0.72103879     0.06590
C1350       C  0.98512648  0.72707130  0.65761166     0.03630
C1351       C  0.99374868  0.75477539  0.63509052    -0.12520
C1352       C  0.99912256  0.78331215  0.65661069     0.01130
C1353       C  0.99626423  0.78411370  0.70078446    -0.11050
C1354       C  0.98750682  0.75655610  0.72342798     0.03620
C1355       C  0.98221376  0.72797948  0.70188193    -0.10470
H1356       H  0.99621581  0.75412979  0.60092360     0.09210
H1357       H  0.00019443  0.80629886  0.71737657     0.06740
H1358       H  0.97650481  0.70636815  0.71955136     0.06590
C1359       C  0.74586318  0.98863839  0.16114038     0.03630
C1360       C  0.75131047  0.99024058  0.20508298    -0.12520
C1361       C  0.74525695  0.51835600  0.22709906     0.01130
C1362       C  0.73621002  0.54611171  0.20486931    -0.11050
C1363       C  0.73283022  0.54577168  0.16052591     0.03620
C1364       C  0.73679912  0.51683610  0.13886655    -0.10470
H1365       H  0.75956559  0.96930159  0.22266763     0.09210
H1366       H  0.73255918  0.56815190  0.22189682     0.06740
H1367       H  0.73347915  0.51654065  0.10478929     0.06590
O1368       O  0.73029961  0.85029351  0.91283196    -0.74790
O1369       O  0.77739686  0.85930125  0.94878956    -0.53700
C1370       C  0.75574874  0.86696882  0.92061226     0.78930
O1371       O  0.65311068  0.77706735  0.08039802    -0.59400
O1372       O  0.64494580  0.72967976  0.04725423    -0.52430
C1373       C  0.63662113  0.75171268  0.07323280     0.70950
O1374       O  0.72804655  0.85226758  0.07881719    -0.73950
O1375       O  0.77573266  0.86047468  0.04431518    -0.54520
C1376       C  0.75347995  0.86867874  0.07083562     0.76950
O1377       O  0.65379495  0.77491526  0.91610585    -0.59100
O1378       O  0.64543907  0.72801953  0.95178013    -0.52220
C1379       C  0.63725182  0.74963051  0.92408610     0.73540
Zr1380     Zr  0.70432178  0.80055924  0.93464063     2.54710
O1381       O  0.66294764  0.84195651  0.92836241    -0.79660
O1382       O  0.70813872  0.79343868  0.85845728    -0.93080
Zr1383     Zr  0.70257701  0.80304778  0.05860867     2.64680
O1384       O  0.66131555  0.84458376  0.05185344    -0.98040
O1385       O  0.70233483  0.80346308  0.13579316    -0.80100
O1386       O  0.72570077  0.82469304  0.99609749    -0.83450
O1387       O  0.68035940  0.77997318  0.99714713    -2.18160
O1388       O  0.74650476  0.68201184  0.92485248    -0.66840
O1389       O  0.69733068  0.67642304  0.95682084    -0.51410
C1390       C  0.72054250  0.66638243  0.93328131     0.71930
O1391       O  0.82018120  0.76121531  0.08205161    -0.59750
O1392       O  0.82948060  0.80792785  0.04635435    -0.51730
C1393       C  0.83741024  0.78586662  0.07365510     0.73730
O1394       O  0.74351580  0.68836147  0.08642572    -0.71150
O1395       O  0.69840274  0.67686566  0.04808132    -0.49820
C1396       C  0.71997661  0.66988973  0.07665123     0.75110
O1397       O  0.81979344  0.75976703  0.91805893    -0.66480
O1398       O  0.82854211  0.80778618  0.94943760    -0.53670
C1399       C  0.83608584  0.78551136  0.92315081     0.73490
Zr1400     Zr  0.77051077  0.73381244  0.94008503     2.77540
O1401       O  0.81430934  0.69468465  0.94276814    -0.97230
O1402       O  0.76546974  0.73269139  0.86320895    -0.78050
Zr1403     Zr  0.76913757  0.73739669  0.06433592     2.70070
O1404       O  0.80989580  0.69540782  0.07059966    -0.79290
O1405       O  0.76575950  0.74394273  0.14072794    -0.98380
Zr1406     Zr  0.78257794  0.81368417  0.99819859     2.21500
Zr1407     Zr  0.69153471  0.72374828  0.00078738     2.11130
O1408       O  0.74829040  0.71297146  0.00312284    -2.47060
O1409       O  0.79310202  0.75736732  0.00149081    -0.79090
O1410       O  0.71437824  0.74473684  0.93687287    -0.71280
O1411       O  0.75892873  0.79284410  0.06187832    -2.32240
O1412       O  0.76038596  0.78959426  0.93592646    -2.28450
O1413       O  0.71288121  0.74746330  0.06356729    -0.73040
H1414       H  0.65732913  0.78397676  0.99642776     0.78950
H1415       H  0.76835332  0.80263525  0.08659037     0.80040
H1416       H  0.75274272  0.69034598  0.00483431     0.82270
H1417       H  0.77006907  0.79852442  0.91068274     0.79870
H1418       H  0.72544391  0.80408232  0.14421273     0.42910
H1419       H  0.74307317  0.73865507  0.14770890     0.41880
H1420       H  0.81909297  0.69388894  0.04180669     0.41560
H1421       H  0.80646590  0.67740074  0.96174516     0.39490
H1422       H  0.74218621  0.72893829  0.85772080     0.42620
H1423       H  0.73149803  0.79457440  0.85204527     0.37410
H1424       H  0.66457151  0.85378963  0.95525644     0.43520
H1425       H  0.64345785  0.83468785  0.03566491     0.39940
H1426       H  0.81437551  0.68515026  0.91421077     0.44860
H1427       H  0.69868408  0.81321613  0.84595723     0.43580
H1428       H  0.65271818  0.84686839  0.08087382     0.43720
H1429       H  0.77861922  0.72592503  0.15274825     0.44070
C1430       C  0.95862853  0.77309689  0.16679748     0.03630
C1431       C  0.96032456  0.77249351  0.21137769    -0.12520
C1432       C  0.98800786  0.76095493  0.23226623     0.01130
C1433       C  0.51522290  0.75255448  0.20903618    -0.11050
C1434       C  0.51588677  0.75765916  0.16503443     0.03620
C1435       C  0.98704335  0.76661797  0.14382430    -0.10470
H1436       H  0.93973959  0.77986202  0.22998513     0.09210
H1437       H  0.53658443  0.74378381  0.22568518     0.06740
H1438       H  0.98681630  0.76859651  0.10959851     0.06590
C1439       C  0.74806997  0.99161443  0.83839187     0.03630
C1440       C  0.75156675  0.99535006  0.79450444    -0.12520
C1441       C  0.74568875  0.52480518  0.77448066     0.01130
C1442       C  0.73732260  0.55141133  0.79856383    -0.11050
C1443       C  0.73302038  0.54830780  0.84275422     0.03620
C1444       C  0.73819106  0.51807376  0.86227075    -0.10470
H1445       H  0.75862061  0.97508925  0.77552871     0.09210
H1446       H  0.73409879  0.57435376  0.78279014     0.06740
H1447       H  0.73438517  0.51502473  0.89601052     0.06590
C1448       C  0.95695393  0.77058645  0.83458923     0.03630
C1449       C  0.95822931  0.76901528  0.79000994    -0.12520
C1450       C  0.98577583  0.75736597  0.76985576     0.01130
C1451       C  0.51273318  0.74822348  0.79383865    -0.11050
C1452       C  0.51295614  0.75141646  0.83801948     0.03620
C1453       C  0.98469717  0.76178808  0.85852117    -0.10470
H1454       H  0.93768604  0.77665999  0.77081282     0.09210
H1455       H  0.53432178  0.74009988  0.77777863     0.06740
H1456       H  0.98455454  0.76344259  0.89274430     0.06590
C1457       C  0.70023024  0.62941255  0.87833418    -0.11770
C1458       C  0.71851880  0.63406167  0.91528298     0.05230
C1459       C  0.73880658  0.60918993  0.93075759    -0.07060
C1460       C  0.74224000  0.58126851  0.90697905    -0.07800
C1461       C  0.72507158  0.57687997  0.86886505    -0.02350
C1462       C  0.70261206  0.60084070  0.85540353     0.04460
N1463       N  0.68193252  0.59655099  0.81905282     0.66970
H1464       H  0.68439164  0.64841481  0.86692246     0.15870
H1465       H  0.75916796  0.56307396  0.91790968     0.15580
N1466       N  0.75629690  0.61205183  0.97019236     0.74670
O1467       O  0.66911991  0.56976230  0.81223460    -0.38780
O1468       O  0.67367162  0.62026569  0.79622290    -0.38720
O1469       O  0.74404974  0.62705547  0.00061360    -0.39420
O1470       O  0.78202578  0.59628152  0.97665009    -0.39490
C1471       C  0.77584546  0.92364971  0.91281261    -0.11770
C1472       C  0.75893848  0.89758647  0.89586023     0.05230
C1473       C  0.74222277  0.90216931  0.85684230    -0.07060
C1474       C  0.73869967  0.93298551  0.83954303    -0.07800
C1475       C  0.75337749  0.95948208  0.85830408    -0.02350
C1476       C  0.77331544  0.95452957  0.89449632     0.04460
N1477       N  0.79158622  0.98027677  0.91235589     0.66970
H1478       H  0.79114902  0.92003404  0.94039710     0.15870
H1479       H  0.72464299  0.93621297  0.81065793     0.15580
N1480       N  0.73055648  0.87556272  0.83298741     0.74670
O1481       O  0.79500680  0.98228756  0.95199543    -0.38780
O1482       O  0.80629379  0.99979259  0.88859261    -0.38720
O1483       O  0.70464618  0.87801258  0.81170780    -0.39420
O1484       O  0.74899356  0.85193826  0.82701400    -0.39490
C1485       C  0.86887053  0.77204081  0.13825044    -0.11770
C1486       C  0.86818618  0.78750210  0.09841039     0.05230
C1487       C  0.89732602  0.80003824  0.08220893    -0.07060
C1488       C  0.92606622  0.79696082  0.10625956    -0.07800
C1489       C  0.92705512  0.77919624  0.14455858    -0.02350
C1490       C  0.89779653  0.76620924  0.16018811     0.04460
N1491       N  0.89713736  0.74454911  0.19589929     0.66970
H1492       H  0.84686379  0.76192728  0.15109014     0.15870
H1493       H  0.94814537  0.80696491  0.09360836     0.15580
N1494       N  0.89901904  0.81243460  0.03977646     0.74670
O1495       O  0.87484908  0.74667324  0.22288642    -0.38780
O1496       O  0.91544678  0.72030641  0.19679214    -0.38720
O1497       O  0.91662579  0.83624903  0.03153749    -0.39420
O1498       O  0.88852036  0.79575584  0.00969583    -0.39490
C1499       C  0.60519083  0.76302119  0.13753375    -0.11770
C1500       C  0.60610524  0.74883652  0.09745805     0.05230
C1501       C  0.57705492  0.73708612  0.07983411    -0.07060
C1502       C  0.54805973  0.73980145  0.10251168    -0.07800
C1503       C  0.54708765  0.75491083  0.14201616    -0.02350
C1504       C  0.57615304  0.76732611  0.15917524     0.04460
N1505       N  0.57644799  0.78643779  0.19674257     0.66970
H1506       H  0.62711886  0.77285354  0.15105730     0.15870
H1507       H  0.52607451  0.73026580  0.08882557     0.15580
N1508       N  0.57584575  0.72488542  0.03773780     0.74670
O1509       O  0.59953208  0.78385735  0.22302728    -0.38780
O1510       O  0.55624836  0.80890793  0.20075528    -0.38720
O1511       O  0.58935250  0.69858664  0.02962558    -0.39420
O1512       O  0.55622336  0.73705730  0.01120657    -0.39490
C1513       C  0.89338107  0.80392783  0.91076905    -0.11770
C1514       C  0.86556818  0.78813866  0.89632823     0.05230
C1515       C  0.86736661  0.77099219  0.85796979    -0.07060
C1516       C  0.89737532  0.76573771  0.83923347    -0.07800
C1517       C  0.92580527  0.77932551  0.85532472    -0.02350
C1518       C  0.92350084  0.80005067  0.89048717     0.04460
N1519       N  0.95099354  0.81772450  0.90541179     0.66970
H1520       H  0.89174269  0.81923062  0.93797741     0.15870
H1521       H  0.89840107  0.75069550  0.81160050     0.15580
N1522       N  0.83877766  0.75949308  0.83697935     0.74670
O1523       O  0.97084256  0.82956148  0.87941924    -0.38780
O1524       O  0.95350954  0.82469008  0.94410942    -0.38720
O1525       O  0.81432173  0.77750507  0.83290017    -0.39420
O1526       O  0.83940208  0.73334365  0.81748427    -0.39490
C1527       C  0.56998740  0.76639273  0.84459996    -0.11770
C1528       C  0.54438645  0.74827395  0.86073499     0.05230
C1529       C  0.54998394  0.72773732  0.89616040    -0.07060
C1530       C  0.58088763  0.72761412  0.91577317    -0.07800
C1531       C  0.60629521  0.74652715  0.89992977    -0.02350
C1532       C  0.60083772  0.76478381  0.86241194     0.04460
N1533       N  0.62669362  0.78045696  0.84045929     0.66970
H1534       H  0.56616751  0.78145778  0.81676225     0.15870
H1535       H  0.58521628  0.71255451  0.94337322     0.15580
N1536       N  0.52533707  0.70638272  0.91164406     0.74670
O1537       O  0.65084201  0.76432082  0.82880480    -0.38780
O1538       O  0.62289043  0.80856005  0.82617667    -0.38720
O1539       O  0.50439243  0.69515201  0.88668812    -0.39420
O1540       O  0.52664613  0.69569089  0.94922511    -0.39490
C1541       C  0.70058841  0.58416479  0.11494434    -0.11770
C1542       C  0.72931555  0.57654748  0.13710766     0.05230
C1543       C  0.75399361  0.59952736  0.13976965    -0.07060
C1544       C  0.74919567  0.62960212  0.12112176    -0.07800
C1545       C  0.72053672  0.63791285  0.09880928    -0.02350
C1546       C  0.69568204  0.61470667  0.09615135     0.04460
N1547       N  0.66510284  0.62184091  0.07623717     0.66970
H1548       H  0.68139279  0.56665446  0.11369914     0.15870
H1549       H  0.76904298  0.64630987  0.12311540     0.15580
N1550       N  0.78443948  0.59257615  0.16056072     0.74670
O1551       O  0.65107404  0.60088237  0.05443110    -0.38780
O1552       O  0.64954558  0.64655856  0.08649484    -0.38720
O1553       O  0.79803466  0.56575856  0.15613385    -0.39420
O1554       O  0.79951615  0.61435710  0.17960114    -0.39490
C1555       C  0.74241870  0.89975288  0.13555885    -0.11770
C1556       C  0.75592872  0.89899937  0.09484622     0.05230
C1557       C  0.76729509  0.92775358  0.07679507    -0.07060
C1558       C  0.76484893  0.95640796  0.09939416    -0.07800
C1559       C  0.74952279  0.95744136  0.13906175    -0.02350
C1560       C  0.73801732  0.92845057  0.15713335     0.04460
N1561       N  0.71979767  0.92774594  0.19576246     0.66970
H1562       H  0.73316787  0.87793417  0.14973209     0.15870
H1563       H  0.77376033  0.97824567  0.08494968     0.15580
N1564       N  0.77778396  0.92893222  0.03385103     0.74670
O1565       O  0.69631460  0.94672587  0.20058832    -0.38780
O1566       O  0.72438385  0.90551762  0.22262065    -0.38720
O1567       O  0.75839792  0.92084044  0.00489996    -0.39420
O1568       O  0.80366639  0.94310499  0.02436371    -0.39490
C1569       C  0.53566506  0.82328308  0.62325250    -0.11770
C1570       C  0.00411537  0.81312080  0.63258652     0.05230
C1571       C  0.97733286  0.83099051  0.61771356    -0.07060
C1572       C  0.98283602  0.85914861  0.59494346    -0.07800
C1573       C  0.51426380  0.87067990  0.58725654    -0.02350
C1574       C  0.54110707  0.85175973  0.60011850     0.04460
N1575       N  0.57366727  0.86099627  0.59068357     0.66970
H1576       H  0.55610090  0.80884897  0.63379370     0.15870
H1577       H  0.96198035  0.87284076  0.58420863     0.15580
N1578       N  0.94445927  0.82131554  0.62572794     0.74670
O1579       O  0.59535063  0.85836608  0.61892223    -0.38780
O1580       O  0.58201665  0.86503669  0.55259645    -0.38720
O1581       O  0.93659037  0.80955867  0.66120780    -0.39420
O1582       O  0.92239898  0.82808179  0.59914775    -0.39490
C1583       C  0.51062280  0.67623247  0.64173366    -0.11770
C1584       C  0.98386604  0.69623378  0.63573917     0.05230
C1585       C  0.95766702  0.68627157  0.60978103    -0.07060
C1586       C  0.95982233  0.65620940  0.59009260    -0.07800
C1587       C  0.98689234  0.63600791  0.59603290    -0.02350
C1588       C  0.51240895  0.64644148  0.62287262     0.04460
N1589       N  0.54031525  0.62715047  0.63223815     0.66970
H1590       H  0.53046884  0.68379889  0.66189289     0.15870
H1591       H  0.94018550  0.64852579  0.56980729     0.15580
N1592       N  0.92873082  0.70544307  0.60358269     0.74670
O1593       O  0.56801358  0.63719518  0.62223580    -0.38840
O1594       O  0.53800799  0.60425279  0.65845193    -0.38720
O1595       O  0.92740916  0.73417687  0.61507213    -0.39420
O1596       O  0.90398565  0.69355667  0.58628046    -0.39490
C1597       C  0.98641983  0.82247763  0.40299185    -0.11770
C1598       C  0.00709616  0.81510091  0.36950550     0.05230
C1599       C  0.53269622  0.83618768  0.35911992    -0.07060
C1600       C  0.53573096  0.86493636  0.38138272    -0.07800
C1601       C  0.51428853  0.87255264  0.41394060    -0.02350
C1602       C  0.98986691  0.85070822  0.42563478     0.04460
N1603       N  0.96843537  0.85682261  0.46035617     0.66970
H1604       H  0.96706039  0.80621845  0.41124333     0.15870
H1605       H  0.55444800  0.88178152  0.37272583     0.15580
N1606       N  0.55570782  0.82883295  0.32657401     0.74670
O1607       O  0.93993251  0.84609531  0.45991923    -0.38780
O1608       O  0.97923882  0.86890714  0.49397884    -0.38720
O1609       O  0.56889773  0.85105598  0.30559055    -0.39420
O1610       O  0.56546117  0.80049901  0.32165263    -0.39490
C1611       C  0.51074244  0.68992084  0.39711485    -0.11770
C1612       C  0.98586686  0.69802220  0.36833990     0.05230
C1613       C  0.95955205  0.67679990  0.36294591    -0.07060
C1614       C  0.95946151  0.64768148  0.38572890    -0.07800
C1615       C  0.98461154  0.63969467  0.41401116    -0.02350
C1616       C  0.51028727  0.66129243  0.42046384     0.04460
N1617       N  0.53587254  0.65464845  0.45068898     0.66970
H1618       H  0.53081077  0.70615208  0.40144140     0.15870
H1619       H  0.93989386  0.63092291  0.38099388     0.15580
N1620       N  0.93271802  0.68445567  0.33524433     0.74670
O1621       O  0.56367969  0.66631260  0.44525565    -0.38780
O1622       O  0.52999632  0.64004831  0.48504213    -0.38720
O1623       O  0.91797592  0.66249875  0.31611614    -0.39420
O1624       O  0.92137268  0.71250498  0.33345573    -0.39490
C1625       C  0.68963435  0.50602597  0.59539578    -0.11770
C1626       C  0.69346214  0.49575174  0.63771845     0.05230
C1627       C  0.66894223  0.97622673  0.65592933    -0.07060
C1628       C  0.64005791  0.97095265  0.63303183    -0.07800
C1629       C  0.63622470  0.98229780  0.59132560    -0.02350
C1630       C  0.66193567  0.49863933  0.57180763     0.04460
N1631       N  0.65983294  0.50839907  0.52815176     0.66970
H1632       H  0.70802020  0.52061085  0.58056043     0.15870
H1633       H  0.62030937  0.95820923  0.64790597     0.15580
N1634       N  0.67304315  0.96121142  0.69690614     0.74670
O1635       O  0.67366398  0.53353573  0.51540478    -0.38780
O1636       O  0.64836705  0.98940923  0.50132022    -0.38720
O1637       O  0.64895460  0.45695653  0.72067553    -0.39420
O1638       O  0.69990200  0.94881892  0.70736265    -0.39490
C1639       C  0.86159895  0.49905122  0.62368771    -0.11770
C1640       C  0.86950330  0.52500668  0.59661087     0.05230
C1641       C  0.84723912  0.55086516  0.59321730    -0.07060
C1642       C  0.81851276  0.55006349  0.61698959    -0.07800
C1643       C  0.81114810  0.52401084  0.64363333    -0.02350
C1644       C  0.83298025  0.49814332  0.64701007     0.04460
N1645       N  0.82628280  0.97033517  0.67285672     0.66970
H1646       H  0.87794724  0.97889311  0.62727623     0.15870
H1647       H  0.80127621  0.56955751  0.61372483     0.15580
N1648       N  0.85266027  0.57767187  0.56544293     0.74670
O1649       O  0.83568946  0.94309406  0.66123085    -0.38780
O1650       O  0.81462864  0.47316272  0.70947336    -0.38720
O1651       O  0.85495856  0.57339681  0.52607410    -0.39420
O1652       O  0.84799582  0.60563012  0.57869844    -0.39490
C1653       C  0.65168136  0.51412809  0.41323684    -0.11770
C1654       C  0.63287597  0.98696332  0.40561475     0.05230
C1655       C  0.64412196  0.96367069  0.37694244    -0.07060
C1656       C  0.67445090  0.96849643  0.35738972    -0.07800
C1657       C  0.69283168  0.49614202  0.36487422    -0.02350
C1658       C  0.68100927  0.51930938  0.39292099     0.04460
N1659       N  0.69696480  0.54941673  0.39854637     0.66970
H1660       H  0.64252643  0.53251831  0.43393670     0.15870
H1661       H  0.68331283  0.95129595  0.33484025     0.15580
N1662       N  0.62479203  0.93645692  0.36529546     0.74670
O1663       O  0.70586016  0.56554648  0.36663892    -0.38780
O1664       O  0.69705616  0.56240891  0.43443623    -0.38720
O1665       O  0.59446488  0.93671654  0.36973072    -0.39420
O1666       O  0.63763365  0.91312742  0.34668399    -0.39490
C1667       C  0.84281920  0.53773434  0.42511555    -0.11770
C1668       C  0.87139411  0.53284581  0.40266746     0.05230
C1669       C  0.86982234  0.52879870  0.35825698    -0.07060
C1670       C  0.83939545  0.52511992  0.33878807    -0.07800
C1671       C  0.81028736  0.52876489  0.36135069    -0.02350
C1672       C  0.81251098  0.53723293  0.40479817     0.04460
N1673       N  0.78469409  0.54679539  0.42840206     0.66970
H1674       H  0.84405241  0.54168800  0.45888127     0.15870
H1675       H  0.83874229  0.51892379  0.30568087     0.15580
N1676       N  0.89861399  0.52906615  0.33252004     0.74670
O1677       O  0.78137652  0.03752704  0.46637309    -0.38780
O1678       O  0.76648205  0.56863659  0.41383438    -0.38720
O1679       O  0.92377169  0.54322025  0.34505498    -0.39420
O1680       O  0.89742168  0.51989286  0.29456782    -0.39490
loop_ 
_geom_bond_atom_site_label_1 
_geom_bond_atom_site_label_2 
_geom_bond_distance 
_geom_bond_site_symmetry_2 
_ccdc_geom_bond_type 
O1          Zr13   2.424       .  S
O1          C423   1.285       .  A
O2          Zr39   2.446       .  S
O2            C3   1.291       .  A
C3          O421   1.285       .  A
C3          C408   1.476       .  S
O4          Zr16   2.407       .  S
O4          C846   1.283       .  A
O5          Zr40   2.452       .  S
O5            C6   1.290       .  A
C6          O844   1.283   1_455  A
C6          C313   1.485       .  S
O7          Zr16   2.412       .  S
O7          C429   1.283       .  A
O8          Zr39   2.451       .  S
O8            C9   1.290       .  A
C9          O427   1.283   1_545  A
C9          C380   1.500       .  S
O10         Zr13   2.429       .  S
O10         C852   1.286       .  A
O11         Zr40   2.438       .  S
O11          C12   1.289       .  A
C12         O850   1.286   1_455  A
C12         C341   1.468       .  S
Zr13         O14   2.434       .  S
Zr13         O15   2.435       .  S
Zr13         O19   2.372       .  S
Zr13         O20   2.359       .  S
Zr13        O883   2.369       .  S
Zr13        O465   2.367       .  S
O14          H57   0.990       .  S
O15          H56   0.989       .  S
O15          H60   0.990       .  S
Zr16         O17   2.436       .  S
Zr16         O18   2.435       .  S
Zr16         O20   2.358       .  S
Zr16         O19   2.365       .  S
Zr16        O464   2.354       .  S
Zr16        O886   2.368       .  S
O17          H58   0.990       .  S
O17          H61   0.990       .  S
O18          H51   0.990       .  S
O19        Zr459   2.381       .  S
O20        Zr880   2.390       .  S
O20          H47   0.963       .  S
O21         Zr33   2.412       .  S
O21         C443   1.283   1_545  A
O22         Zr40   2.455       .  S
O22          C23   1.292       .  A
C23         O441   1.283       .  A
C23         C394   1.476       .  S
O24         Zr36   2.415       .  S
O24         C866   1.282   1_455  A
O25         Zr39   2.446       .  S
O25          C26   1.292       .  A
C26         O864   1.282       .  A
C26         C327   1.495       .  S
O27         Zr36   2.426       .  S
O27         C449   1.284   1_545  A
O28         Zr40   2.454       .  S
O28          C29   1.292       .  A
C29         O447   1.284       .  A
C29         C369   1.475       .  S
O30         Zr33   2.422       .  S
O30         C872   1.285   1_455  A
O31         Zr39   2.433       .  S
O31          C32   1.288       .  A
C32         O870   1.285       .  A
C32         C355   1.468       .  S
Zr33         O34   2.437       .  S
Zr33         O35   2.434       .  S
Zr33         O41   2.367       .  S
Zr33         O42   2.363       .  S
Zr33        O885   2.360   1_455  S
Zr33        O463   2.371   1_545  S
O34          H54   0.990       .  S
O34          H59   0.990       .  S
O35          H55   0.990       .  S
Zr36         O37   2.434       .  S
Zr36         O38   2.434       .  S
Zr36         O42   2.366       .  S
Zr36         O41   2.364       .  S
Zr36        O466   2.364   1_545  S
Zr36        O884   2.368   1_455  S
O37          H53   0.990       .  S
O38          H52   0.990       .  S
O38          H62   0.990       .  S
Zr39         O44   2.391       .  S
Zr39         O45   2.395       .  S
Zr39        O439   2.381   1_545  S
Zr39        O882   2.386       .  S
Zr40         O43   2.396       .  S
Zr40         O46   2.393       .  S
Zr40        O860   2.390   1_455  S
Zr40        O461   2.389       .  S
O41        Zr460   2.389   1_545  S
O41          H49   0.966       .  S
O42        Zr879   2.386   1_455  S
O43        Zr853   2.369   1_455  S
O43        Zr453   2.371       .  S
O44        Zr436   2.354   1_545  S
O44        Zr876   2.368       .  S
O44          H48   0.966       .  S
O45        Zr433   2.367   1_545  S
O45        Zr873   2.360       .  S
O45          H50   0.966       .  S
O46        Zr856   2.368   1_455  S
O46        Zr456   2.364       .  S
C63         C352   1.483       .  S
C63          C64   1.403       .  A
C63          C68   1.405       .  A
C64          C65   1.402       .  A
C64          H69   1.084       .  S
C65         C338   1.479       .  S
C65          C66   1.400       .  A
C66          C67   1.399       .  A
C66          H70   1.084       .  S
C67         C172   1.466       .  S
C67          C68   1.403       .  A
C68          H71   1.084       .  S
C72         C397   1.482   1_545  S
C72          C73   1.407       .  A
C72          C77   1.397       .  A
C73          C74   1.414       .  A
C73          H78   1.081       .  S
C74         C411   1.509       .  S
C74          C75   1.415       .  A
C75          C76   1.401       .  A
C75          H79   1.082       .  S
C76         C101   1.470       .  S
C76          C77   1.396       .  A
C77          H80   1.084       .  S
C81         C366   1.499   1_545  S
C81          C82   1.410       .  A
C81          C86   1.408       .  A
C82          C83   1.403       .  A
C82          H87   1.083       .  S
C83         C383   1.477       .  S
C83          C84   1.401       .  A
C84          C85   1.400       .  A
C84          H88   1.084       .  S
C85         C181   1.470       .  S
C85          C86   1.402       .  A
C86          H89   1.083       .  S
C90         C324   1.473       .  S
C90          C91   1.401       .  A
C90          C95   1.404       .  A
C91          C92   1.400       .  A
C91          H96   1.084       .  S
C92         C310   1.467       .  S
C92          C93   1.400       .  A
C93          C94   1.399       .  A
C93          H97   1.084       .  S
C94         C190   1.468       .  S
C94          C95   1.401       .  A
C95          H98   1.084       .  S
C99         C299   1.496       .  S
C99         C100   1.405       .  A
C99         C524   1.413       .  A
C100        C521   1.397       .  A
C100        H105   1.083       .  S
C101        C102   1.397       .  A
C101        C520   1.397   1_545  A
C102        C103   1.405       .  A
C102        H106   1.084       .  S
C103        C282   1.482       .  S
C103        C104   1.408       .  A
C104        C519   1.413   1_545  A
C104        H107   1.083       .  S
O108       Zr120   2.440       .  S
O108        C110   1.289       .  A
O109       Zr146   2.456       .  S
O109        C110   1.293       .  A
C110        C212   1.499       .  S
O111       Zr123   2.420       .  S
O111        C113   1.286       .  A
O112       Zr147   2.442       .  S
O112        C113   1.289       .  A
C113        C240   1.484       .  S
O114       Zr123   2.409       .  S
O114        C116   1.283       .  A
O115       Zr146   2.472   1_554  S
O115        C116   1.296       .  A
C116        C296   1.490       .  S
O117       Zr120   2.424       .  S
O117        C119   1.286       .  A
O118       Zr147   2.449   1_556  S
O118        C119   1.291       .  A
C119        C271   1.491       .  S
Zr120       O121   2.434       .  S
Zr120       O122   2.432       .  S
Zr120       O126   2.365       .  S
Zr120       O127   2.367       .  S
Zr120       O150   2.371       .  S
Zr120       O152   2.360       .  S
O121        H164   0.990       .  S
O122        H163   0.989       .  S
O122        H167   0.990       .  S
Zr123       O124   2.436       .  S
Zr123       O125   2.436       .  S
Zr123       O127   2.360   1_554  S
Zr123       O126   2.369   1_554  S
Zr123       O151   2.367       .  S
Zr123       O153   2.366       .  S
O124        H165   0.990       .  S
O124        H168   0.990       .  S
O125        H158   0.990       .  S
O126       Zr146   2.393       .  S
O127       Zr147   2.397   1_556  S
O127        H154   0.966       .  S
O128       Zr140   2.441       .  S
O128        C130   1.287       .  A
O129       Zr147   2.445   1_556  S
O129        C130   1.290       .  A
C130        C198   1.477       .  S
O131       Zr143   2.403       .  S
O131        C133   1.282       .  A
O132       Zr146   2.463   1_554  S
O132        C133   1.294       .  A
C133        C226   1.490       .  S
O134       Zr143   2.411       .  S
O134        C136   1.284       .  A
O135       Zr147   2.463       .  S
O135        C136   1.293       .  A
C136        C285   1.502       .  S
O137       Zr140   2.415       .  S
O137        C139   1.285       .  A
O138       Zr146   2.467       .  S
O138        C139   1.295       .  A
C139        C254   1.492       .  S
Zr140       O141   2.435       .  S
Zr140       O142   2.434       .  S
Zr140       O148   2.356   1_556  S
Zr140       O149   2.373   1_556  S
Zr140       O152   2.372       .  S
Zr140       O150   2.364       .  S
O141        H161   0.990       .  S
O141        H166   0.990       .  S
O142        H162   0.990       .  S
Zr143       O144   2.434       .  S
Zr143       O145   2.434       .  S
Zr143       O149   2.367       .  S
Zr143       O148   2.357       .  S
Zr143       O153   2.361       .  S
Zr143       O151   2.357       .  S
O144        H160   0.990       .  S
O145        H159   0.990       .  S
O145        H169   0.990       .  S
Zr146       O149   2.396   1_556  S
Zr146       O151   2.397   1_556  S
Zr146       O152   2.398       .  S
Zr147       O148   2.387       .  S
Zr147       O150   2.391   1_554  S
Zr147       O153   2.392       .  S
O148        H156   0.965       .  S
O151        H155   0.966       .  S
O152        H157   0.966       .  S
C170        C229   1.496       .  S
C170        C171   1.408       .  A
C170        C175   1.412       .  A
C171        C172   1.397       .  A
C171        H176   1.083       .  S
C172       C1013   1.393       .  A
C173        C174   1.402       .  A
C173       C1012   1.393   1_455  A
C173        H177   1.084       .  S
C174        C243   1.489       .  S
C174       C1015   1.409   1_455  A
C175       C1014   1.409       .  A
C175        H178   1.082       .  S
C179        C215   1.491       .  S
C179        C180   1.400       .  A
C179        C604   1.408       .  A
C180        C601   1.397       .  A
C180        H185   1.085       .  S
C181        C182   1.400       .  A
C181        C600   1.397   1_545  A
C182        C183   1.411       .  A
C182        H186   1.083       .  S
C183        C201   1.498       .  S
C183        C184   1.415       .  A
C184        C599   1.408   1_545  A
C184        H187   1.083       .  S
C188        C257   1.494       .  S
C188        C189   1.410       .  A
C188        C193   1.413       .  A
C189        C190   1.397       .  A
C189        H194   1.084       .  S
C190       C1031   1.391       .  A
C191        C192   1.402       .  A
C191       C1030   1.391   1_455  A
C191        H195   1.085       .  S
C192        C268   1.483       .  S
C192       C1033   1.409   1_455  A
C193       C1032   1.409       .  A
C193        H196   1.083       .  S
C197        C198   1.401       .  A
C197        C202   1.409       .  A
C197        H204   1.084       .  S
C198        C199   1.413       .  A
C199        C200   1.404       .  A
C199        N206   1.441       .  S
C200        C201   1.406       .  A
C200        H205   1.083       .  S
C201        C202   1.422       .  A
C202        N203   1.439       .  S
N203        O207   1.263       .  A
N203        O208   1.263       .  A
N206        O209   1.262   1_556  A
N206        O210   1.263       .  A
C211        C212   1.408       .  A
C211        C216   1.412       .  A
C211        H218   1.081       .  S
C212        C213   1.417       .  A
C213        C214   1.400       .  A
C213        N220   1.436       .  S
C214        C215   1.402       .  A
C214        H219   1.084       .  S
C215        C216   1.416       .  A
C216        N217   1.438       .  S
N217        O221   1.261       .  A
N217        O222   1.263       .  A
N220        O223   1.263       .  A
N220        O224   1.262       .  A
C225        C226   1.406       .  A
C225        C230   1.396       .  A
C225        H232   1.084       .  S
C226        C227   1.412       .  A
C227        C228   1.409       .  A
C227        N234   1.432       .  S
C228        C229   1.411       .  A
C228        H233   1.083       .  S
C229        C230   1.417       .  A
C230        N231   1.437       .  S
N231        O235   1.263       .  A
N231        O236   1.263       .  A
N234        O237   1.262       .  A
N234        O238   1.261       .  A
C239        C240   1.405       .  A
C239        C244   1.397       .  A
C239        H246   1.084       .  S
C240        C241   1.413       .  A
C241        C242   1.405       .  A
C241        N248   1.430       .  S
C242        C243   1.406       .  A
C242        H247   1.083       .  S
C243        C244   1.418       .  A
C244        N245   1.439       .  S
N245        O249   1.263       .  A
N245        O250   1.263       .  A
N248        O251   1.262       .  A
N248        O252   1.262       .  A
C253        C254   1.405       .  A
C253        C258   1.414       .  A
C253        H260   1.080       .  S
C254        C255   1.417       .  A
C255        C256   1.396       .  A
C255        N262   1.438       .  S
C256        C257   1.402       .  A
C256        H261   1.083       .  S
C257        C258   1.421       .  A
C258        N259   1.439       .  S
N259        O263   1.263       .  A
N259        O264   1.263       .  A
N262        O265   1.263       .  A
N262        O266   1.263       .  A
C267        C268   1.400       .  A
C267        C272   1.390       .  A
C267        H274   1.084       .  S
C268        C269   1.418       .  A
C269        C270   1.415       .  A
C269        N276   1.442       .  S
C270        C271   1.409       .  A
C270        H275   1.081       .  S
C271        C272   1.416       .  A
C272        N273   1.434       .  S
N273        O277   1.262       .  A
N273        O278   1.263       .  A
N276        O279   1.262       .  A
N276        O280   1.262       .  A
C281        C282   1.406       .  A
C281        C286   1.415       .  A
C281        H288   1.084       .  S
C282        C283   1.408       .  A
C283        C284   1.395       .  A
C283        N290   1.441       .  S
C284        C285   1.413       .  A
C284        H289   1.082       .  S
C285        C286   1.420       .  A
C286        N287   1.435       .  S
N287        O291   1.263       .  A
N287        O292   1.263       .  A
N290        O293   1.263       .  A
N290        O294   1.263       .  A
C295        C296   1.405       .  A
C295        C300   1.400       .  A
C295        H302   1.084       .  S
C296        C297   1.409       .  A
C297        C298   1.407       .  A
C297        N304   1.426       .  S
C298        C299   1.408       .  A
C298        H303   1.083       .  S
C299        C300   1.419       .  A
C300        N301   1.437       .  S
N301        O305   1.263       .  A
N301        O306   1.263       .  A
N304        O307   1.261       .  A
N304        O308   1.262       .  A
C309        C314   1.409       .  A
C309       C1150   1.406       .  A
C309        H316   1.084       .  S
C310        C311   1.407       .  A
C310       C1149   1.406       .  A
C311        C312   1.393       .  A
C311        N318   1.443       .  S
C312       C1153   1.409       .  A
C312        H317   1.082       .  S
C313        C314   1.414       .  A
C313       C1152   1.409   1_455  A
C314        N315   1.434       .  S
N315        O319   1.262       .  A
N315        O320   1.262       .  A
N318        O321   1.262       .  A
N318        O322   1.263       .  A
C323        C328   1.391       .  A
C323       C1164   1.394   1_455  A
C323        H330   1.085       .  S
C324        C325   1.420       .  A
C324       C1163   1.394       .  A
C325        C326   1.413       .  A
C325        N332   1.448       .  S
C326        C327   1.409       .  A
C326        H331   1.083       .  S
C327       C1168   1.422       .  A
C328       C1167   1.422   1_455  A
C328        N329   1.431       .  S
N329        O333   1.262       .  A
N329        O334   1.262       .  A
N332        O335   1.262       .  A
N332        O336   1.263       .  A
C337        C338   1.400       .  A
C337        C342   1.396       .  A
C337        H344   1.084       .  S
C338       C1179   1.419       .  A
C339        C340   1.407       .  A
C339       C1178   1.419       .  A
C339        N346   1.440       .  S
C340        C341   1.401       .  A
C340        H345   1.083       .  S
C341       C1182   1.413   1_455  A
C342       C1181   1.413       .  A
C342        N343   1.439       .  S
N343        O347   1.263       .  A
N343        O348   1.261       .  A
N346        O349   1.263       .  A
N346        O350   1.263       .  A
C351        C356   1.398       .  A
C351       C1192   1.404   1_455  A
C351        H358   1.084       .  S
C352        C353   1.418       .  A
C352       C1191   1.404       .  A
C353        C354   1.407       .  A
C353        N360   1.439       .  S
C354        C355   1.401       .  A
C354        H359   1.084       .  S
C355       C1196   1.413       .  A
C356       C1195   1.413   1_455  A
C356        N357   1.442       .  S
N357        O361   1.263       .  A
N357        O362   1.263       .  A
N360        O363   1.263       .  A
N360        O364   1.262       .  A
C365        C366   1.405   1_545  A
C365        C370   1.399   1_545  A
C365        H372   1.082       .  S
C366        C787   1.424       .  A
C367        C368   1.411       .  A
C367        C786   1.424       .  A
C367        N374   1.438       .  S
C368        C369   1.401       .  A
C368        H373   1.084       .  S
C369        C790   1.408       .  A
C370        C789   1.408       .  A
C370        N371   1.433   1_565  S
N371        O375   1.262       .  A
N371        O796   1.260   1_545  A
N374        O378   1.263       .  A
N374        O797   1.263       .  A
O376        N791   1.260       .  A
O377        N794   1.263       .  A
C379        C380   1.414   1_565  A
C379        C384   1.398       .  A
C379        H806   1.083       .  S
C380        C381   1.420       .  A
C381        C382   1.409       .  A
C381        N388   1.434       .  S
C382        C383   1.404       .  A
C382        H387   1.084       .  S
C383        C384   1.408   1_545  A
C384        N805   1.441       .  S
N385        C804   1.441       .  S
N385        O389   1.263       .  A
N385        O810   1.262       .  A
H386        C799   1.083       .  S
N388        O391   1.261       .  A
N388        O392   1.262       .  A
O390        N805   1.262       .  A
C393        C398   1.392       .  A
C393        C814   1.403   1_545  A
C393        H400   1.085       .  S
C394        C395   1.418       .  A
C394        C813   1.403       .  A
C395        C396   1.415       .  A
C395        N402   1.444       .  S
C396        C817   1.409       .  A
C396        H401   1.083       .  S
C397        C398   1.409   1_565  A
C397        C816   1.409       .  A
C398        N399   1.438       .  S
N399        O403   1.263       .  A
N399        O404   1.263       .  A
N402        O405   1.262       .  A
N402        O406   1.263       .  A
C407        C408   1.397       .  A
C407        C412   1.403       .  A
C407        H414   1.081       .  S
C408        C409   1.415       .  A
C409        C410   1.405       .  A
C409        N416   1.446       .  S
C410        C411   1.411       .  A
C410        H415   1.080       .  S
C411        C412   1.423       .  A
C412        N413   1.433       .  S
N413        O418   1.261       .  A
N413        O837   1.263       .  A
N416        O419   1.263       .  A
N416        O420   1.263       .  A
O417        N833   1.263       .  A
O421       Zr433   2.424   1_545  S
O422       Zr459   2.446       .  S
O422        C423   1.291       .  A
C423        C828   1.476       .  S
O424       Zr436   2.407       .  S
O424       C1266   1.283       .  A
O425       Zr460   2.452       .  S
O425        C426   1.290       .  A
C426       O1264   1.283   1_455  A
C426        C733   1.485       .  S
O427       Zr436   2.412       .  S
O428       Zr459   2.451       .  S
O428        C429   1.290       .  A
C429        C800   1.500       .  S
O430       Zr433   2.429       .  S
O430       C1272   1.286       .  A
O431       Zr460   2.438       .  S
O431        C432   1.289       .  A
C432       O1270   1.286   1_455  A
C432        C761   1.468       .  S
Zr433       O434   2.434       .  S
Zr433       O435   2.435       .  S
Zr433       O439   2.372       .  S
Zr433       O440   2.359       .  S
Zr433      O1303   2.369       .  S
O434        H477   0.990       .  S
O435        H476   0.989       .  S
O435        H480   0.990       .  S
Zr436       O437   2.436       .  S
Zr436       O438   2.435       .  S
Zr436       O440   2.358       .  S
Zr436       O439   2.365       .  S
Zr436      O1306   2.368       .  S
O437        H478   0.990       .  S
O437        H481   0.990       .  S
O438        H471   0.990       .  S
O440      Zr1300   2.390       .  S
O440        H467   0.963       .  S
O441       Zr453   2.412       .  S
O442       Zr460   2.455       .  S
O442        C443   1.292       .  A
C443        C814   1.476       .  S
O444       Zr456   2.415       .  S
O444       C1286   1.282   1_455  A
O445       Zr459   2.446       .  S
O445        C446   1.292       .  A
C446       O1284   1.282       .  A
C446        C747   1.495       .  S
O447       Zr456   2.426       .  S
O448       Zr460   2.454       .  S
O448        C449   1.292       .  A
C449        C789   1.475       .  S
O450       Zr453   2.422       .  S
O450       C1292   1.285   1_455  A
O451       Zr459   2.433       .  S
O451        C452   1.288       .  A
C452       O1290   1.285       .  A
C452        C775   1.468       .  S
Zr453       O454   2.437       .  S
Zr453       O455   2.434       .  S
Zr453       O461   2.367       .  S
Zr453       O462   2.363       .  S
Zr453      O1305   2.360   1_455  S
O454        H474   0.990       .  S
O454        H479   0.990       .  S
O455        H475   0.990       .  S
Zr456       O457   2.434       .  S
Zr456       O458   2.434       .  S
Zr456       O462   2.366       .  S
Zr456       O461   2.364       .  S
Zr456      O1304   2.368   1_455  S
O457        H473   0.990       .  S
O458        H472   0.990       .  S
O458        H482   0.990       .  S
Zr459      O1302   2.386       .  S
Zr459       O464   2.391       .  S
Zr459       O465   2.395       .  S
Zr460      O1280   2.390   1_455  S
Zr460       O463   2.396       .  S
Zr460       O466   2.393       .  S
O461        H469   0.966       .  S
O462      Zr1299   2.386   1_455  S
O463      Zr1273   2.369   1_455  S
O464      Zr1296   2.368       .  S
O464        H468   0.966       .  S
O465      Zr1293   2.360       .  S
O465        H470   0.966       .  S
O466      Zr1276   2.368   1_455  S
C483        C772   1.483       .  S
C483        C484   1.403       .  A
C483        C488   1.405       .  A
C484        C485   1.402       .  A
C484        H489   1.084       .  S
C485        C758   1.479       .  S
C485        C486   1.400       .  A
C486        C487   1.399       .  A
C486        H490   1.084       .  S
C487        C592   1.466       .  S
C487        C488   1.403       .  A
C488        H491   1.084       .  S
C492        C817   1.482       .  S
C492        C493   1.407       .  A
C492        C497   1.397       .  A
C493        C494   1.414       .  A
C493        H498   1.081       .  S
C494        C831   1.509       .  S
C494        C495   1.415       .  A
C495        C496   1.401       .  A
C495        H499   1.082       .  S
C496        C521   1.470       .  S
C496        C497   1.396       .  A
C497        H500   1.084       .  S
C501        C786   1.499       .  S
C501        C502   1.410       .  A
C501        C506   1.408       .  A
C502        C503   1.403       .  A
C502        H507   1.083       .  S
C503        C803   1.477       .  S
C503        C504   1.401       .  A
C504        C505   1.400       .  A
C504        H508   1.084       .  S
C505        C601   1.470       .  S
C505        C506   1.402       .  A
C506        H509   1.083       .  S
C510        C744   1.473       .  S
C510        C511   1.401       .  A
C510        C515   1.404       .  A
C511        C512   1.400       .  A
C511        H516   1.084       .  S
C512        C730   1.467       .  S
C512        C513   1.400       .  A
C513        C514   1.399       .  A
C513        H517   1.084       .  S
C514        C610   1.468       .  S
C514        C515   1.401       .  A
C515        H518   1.084       .  S
C519        C719   1.496       .  S
C519        C520   1.405       .  A
C520        H525   1.083       .  S
C521        C522   1.397       .  A
C522        C523   1.405       .  A
C522        H526   1.084       .  S
C523        C702   1.482       .  S
C523        C524   1.408       .  A
C524        H527   1.083       .  S
O528       Zr540   2.440       .  S
O528        C530   1.289       .  A
O529       Zr566   2.456       .  S
O529        C530   1.293       .  A
C530        C632   1.499       .  S
O531       Zr543   2.420       .  S
O531        C533   1.286       .  A
O532       Zr567   2.442       .  S
O532        C533   1.289       .  A
C533        C660   1.484       .  S
O534       Zr543   2.409       .  S
O534        C536   1.283       .  A
O535       Zr566   2.472   1_554  S
O535        C536   1.296       .  A
C536        C716   1.490       .  S
O537       Zr540   2.424       .  S
O537        C539   1.286       .  A
O538       Zr567   2.449   1_556  S
O538        C539   1.291       .  A
C539        C691   1.491       .  S
Zr540       O541   2.434       .  S
Zr540       O542   2.432       .  S
Zr540       O546   2.365       .  S
Zr540       O547   2.367       .  S
Zr540       O570   2.371       .  S
Zr540       O572   2.360       .  S
O541        H584   0.990       .  S
O542        H583   0.989       .  S
O542        H587   0.990       .  S
Zr543       O544   2.436       .  S
Zr543       O545   2.436       .  S
Zr543       O547   2.360   1_554  S
Zr543       O546   2.369   1_554  S
Zr543       O571   2.367       .  S
Zr543       O573   2.366       .  S
O544        H585   0.990       .  S
O544        H588   0.990       .  S
O545        H578   0.990       .  S
O546       Zr566   2.393       .  S
O547       Zr567   2.397   1_556  S
O547        H574   0.966       .  S
O548       Zr560   2.441       .  S
O548        C550   1.287       .  A
O549       Zr567   2.445   1_556  S
O549        C550   1.290       .  A
C550        C618   1.477       .  S
O551       Zr563   2.403       .  S
O551        C553   1.282       .  A
O552       Zr566   2.463   1_554  S
O552        C553   1.294       .  A
C553        C646   1.490       .  S
O554       Zr563   2.411       .  S
O554        C556   1.284       .  A
O555       Zr567   2.463       .  S
O555        C556   1.293       .  A
C556        C705   1.502       .  S
O557       Zr560   2.415       .  S
O557        C559   1.285       .  A
O558       Zr566   2.467       .  S
O558        C559   1.295       .  A
C559        C674   1.492       .  S
Zr560       O561   2.435       .  S
Zr560       O562   2.434       .  S
Zr560       O568   2.356   1_556  S
Zr560       O569   2.373   1_556  S
Zr560       O572   2.372       .  S
Zr560       O570   2.364       .  S
O561        H581   0.990       .  S
O561        H586   0.990       .  S
O562        H582   0.990       .  S
Zr563       O564   2.434       .  S
Zr563       O565   2.434       .  S
Zr563       O569   2.367       .  S
Zr563       O568   2.357       .  S
Zr563       O573   2.361       .  S
Zr563       O571   2.357       .  S
O564        H580   0.990       .  S
O565        H579   0.990       .  S
O565        H589   0.990       .  S
Zr566       O569   2.396   1_556  S
Zr566       O571   2.397   1_556  S
Zr566       O572   2.398       .  S
Zr567       O568   2.387       .  S
Zr567       O570   2.391   1_554  S
Zr567       O573   2.392       .  S
O568        H576   0.965       .  S
O571        H575   0.966       .  S
O572        H577   0.966       .  S
C590        C649   1.496       .  S
C590        C591   1.408       .  A
C590        C595   1.412       .  A
C591        C592   1.397       .  A
C591        H596   1.083       .  S
C592       C1433   1.393       .  A
C593       C1432   1.393   1_455  A
C593        C594   1.402       .  A
C593        H597   1.084       .  S
C594        C663   1.489       .  S
C594       C1435   1.409   1_455  A
C595       C1434   1.409       .  A
C595        H598   1.082       .  S
C599        C635   1.491       .  S
C599        C600   1.400       .  A
C600        H605   1.085       .  S
C601        C602   1.400       .  A
C602        C603   1.411       .  A
C602        H606   1.083       .  S
C603        C621   1.498       .  S
C603        C604   1.415       .  A
C604        H607   1.083       .  S
C608        C677   1.494       .  S
C608        C609   1.410       .  A
C608        C613   1.413       .  A
C609        C610   1.397       .  A
C609        H614   1.084       .  S
C610       C1451   1.391       .  A
C611       C1450   1.391   1_455  A
C611        C612   1.402       .  A
C611        H615   1.085       .  S
C612        C688   1.483       .  S
C612       C1453   1.409   1_455  A
C613       C1452   1.409       .  A
C613        H616   1.083       .  S
C617        C618   1.401       .  A
C617        C622   1.409       .  A
C617        H624   1.084       .  S
C618        C619   1.413       .  A
C619        C620   1.404       .  A
C619        N626   1.441       .  S
C620        C621   1.406       .  A
C620        H625   1.083       .  S
C621        C622   1.422       .  A
C622        N623   1.439       .  S
N623        O627   1.263       .  A
N623        O628   1.263       .  A
N626        O629   1.262   1_556  A
N626        O630   1.263       .  A
C631        C632   1.408       .  A
C631        C636   1.412       .  A
C631        H638   1.081       .  S
C632        C633   1.417       .  A
C633        C634   1.400       .  A
C633        N640   1.436       .  S
C634        C635   1.402       .  A
C634        H639   1.084       .  S
C635        C636   1.416       .  A
C636        N637   1.438       .  S
N637        O641   1.261       .  A
N637        O642   1.263       .  A
N640        O643   1.263       .  A
N640        O644   1.262       .  A
C645        C646   1.406       .  A
C645        C650   1.396       .  A
C645        H652   1.084       .  S
C646        C647   1.412       .  A
C647        C648   1.409       .  A
C647        N654   1.432       .  S
C648        C649   1.411       .  A
C648        H653   1.083       .  S
C649        C650   1.417       .  A
C650        N651   1.437       .  S
N651        O655   1.263       .  A
N651        O656   1.263       .  A
N654        O657   1.262       .  A
N654        O658   1.261       .  A
C659        C660   1.405       .  A
C659        C664   1.397       .  A
C659        H666   1.084       .  S
C660        C661   1.413       .  A
C661        C662   1.405       .  A
C661        N668   1.430       .  S
C662        C663   1.406       .  A
C662        H667   1.083       .  S
C663        C664   1.418       .  A
C664        N665   1.439       .  S
N665        O669   1.263       .  A
N665        O670   1.263       .  A
N668        O671   1.262       .  A
N668        O672   1.262       .  A
C673        C674   1.405       .  A
C673        C678   1.414       .  A
C673        H680   1.080       .  S
C674        C675   1.417       .  A
C675        C676   1.396       .  A
C675        N682   1.438       .  S
C676        C677   1.402       .  A
C676        H681   1.083       .  S
C677        C678   1.421       .  A
C678        N679   1.439       .  S
N679        O683   1.263       .  A
N679        O684   1.263       .  A
N682        O685   1.263       .  A
N682        O686   1.263       .  A
C687        C688   1.400       .  A
C687        C692   1.390       .  A
C687        H694   1.084       .  S
C688        C689   1.418       .  A
C689        C690   1.415       .  A
C689        N696   1.442       .  S
C690        C691   1.409       .  A
C690        H695   1.081       .  S
C691        C692   1.416       .  A
C692        N693   1.434       .  S
N693        O697   1.262       .  A
N693        O698   1.263       .  A
N696        O699   1.262       .  A
N696        O700   1.262       .  A
C701        C702   1.406       .  A
C701        C706   1.415       .  A
C701        H708   1.084       .  S
C702        C703   1.408       .  A
C703        C704   1.395       .  A
C703        N710   1.441       .  S
C704        C705   1.413       .  A
C704        H709   1.082       .  S
C705        C706   1.420       .  A
C706        N707   1.435       .  S
N707        O711   1.263       .  A
N707        O712   1.263       .  A
N710        O713   1.263       .  A
N710        O714   1.263       .  A
C715        C716   1.405       .  A
C715        C720   1.400       .  A
C715        H722   1.084       .  S
C716        C717   1.409       .  A
C717        C718   1.407       .  A
C717        N724   1.426       .  S
C718        C719   1.408       .  A
C718        H723   1.083       .  S
C719        C720   1.419       .  A
C720        N721   1.437       .  S
N721        O725   1.263       .  A
N721        O726   1.263       .  A
N724        O727   1.261       .  A
N724        O728   1.262       .  A
C729       C1570   1.406       .  A
C729        C734   1.409       .  A
C729        H736   1.084       .  S
C730       C1569   1.406       .  A
C730        C731   1.407       .  A
C731        C732   1.393       .  A
C731        N738   1.443       .  S
C732       C1573   1.409       .  A
C732        H737   1.082       .  S
C733       C1572   1.409   1_455  A
C733        C734   1.414       .  A
C734        N735   1.434       .  S
N735        O739   1.262       .  A
N735        O740   1.262       .  A
N738        O741   1.262       .  A
N738        O742   1.263       .  A
C743       C1584   1.394   1_455  A
C743        C748   1.391       .  A
C743        H750   1.085       .  S
C744       C1583   1.394       .  A
C744        C745   1.420       .  A
C745        C746   1.413       .  A
C745        N752   1.448       .  S
C746        C747   1.409       .  A
C746        H751   1.083       .  S
C747       C1588   1.422       .  A
C748       C1587   1.422   1_455  A
C748        N749   1.431       .  S
N749        O753   1.262       .  A
N749        O754   1.262       .  A
N752        O755   1.262       .  A
N752        O756   1.263       .  A
C757        C758   1.400       .  A
C757        C762   1.396       .  A
C757        H764   1.084       .  S
C758       C1599   1.419       .  A
C759       C1598   1.419       .  A
C759        C760   1.407       .  A
C759        N766   1.440       .  S
C760        C761   1.401       .  A
C760        H765   1.083       .  S
C761       C1602   1.413   1_455  A
C762       C1601   1.413       .  A
C762        N763   1.439       .  S
N763        O767   1.263       .  A
N763        O768   1.261       .  A
N766        O769   1.263       .  A
N766        O770   1.263       .  A
C771       C1612   1.404   1_455  A
C771        C776   1.398       .  A
C771        H778   1.084       .  S
C772       C1611   1.404       .  A
C772        C773   1.418       .  A
C773        C774   1.407       .  A
C773        N780   1.439       .  S
C774        C775   1.401       .  A
C774        H779   1.084       .  S
C775       C1616   1.413       .  A
C776       C1615   1.413   1_455  A
C776        N777   1.442       .  S
N777        O781   1.263       .  A
N777        O782   1.263       .  A
N780        O783   1.263       .  A
N780        O784   1.262       .  A
C785        C786   1.405       .  A
C785        C790   1.399       .  A
C785        H792   1.082       .  S
C787        C788   1.411       .  A
C787        N794   1.438       .  S
C788        C789   1.401       .  A
C788        H793   1.084       .  S
C790        N791   1.433       .  S
N791        O795   1.262       .  A
N794        O798   1.263       .  A
C799        C800   1.414       .  A
C799        C804   1.398       .  A
C800        C801   1.420       .  A
C801        C802   1.409       .  A
C801        N808   1.434       .  S
C802        C803   1.404       .  A
C802        H807   1.084       .  S
C803        C804   1.408       .  A
N805        O809   1.263       .  A
N808        O811   1.261       .  A
N808        O812   1.262       .  A
C813        C818   1.392       .  A
C813        H820   1.085       .  S
C814        C815   1.418       .  A
C815        C816   1.415       .  A
C815        N822   1.444       .  S
C816        H821   1.083       .  S
C817        C818   1.409       .  A
C818        N819   1.438       .  S
N819        O823   1.263       .  A
N819        O824   1.263       .  A
N822        O825   1.262       .  A
N822        O826   1.263       .  A
C827        C828   1.397       .  A
C827        C832   1.403       .  A
C827        H834   1.081       .  S
C828        C829   1.415       .  A
C829        C830   1.405       .  A
C829        N836   1.446       .  S
C830        C831   1.411       .  A
C830        H835   1.080       .  S
C831        C832   1.423       .  A
C832        N833   1.433       .  S
N833        O838   1.261       .  A
N836        O839   1.263       .  A
N836        O840   1.263       .  A
O841       Zr853   2.424       .  S
O841       C1263   1.285       .  A
O842       Zr879   2.446       .  S
O842        C843   1.291       .  A
C843       O1261   1.285       .  A
C843       C1248   1.476       .  S
O844       Zr856   2.407       .  S
O845       Zr880   2.452       .  S
O845        C846   1.290       .  A
C846       C1153   1.485       .  S
O847       Zr856   2.412       .  S
O847       C1269   1.283       .  A
O848       Zr879   2.451       .  S
O848        C849   1.290       .  A
C849       O1267   1.283   1_545  A
C849       C1220   1.500       .  S
O850       Zr853   2.429       .  S
O851       Zr880   2.438       .  S
O851        C852   1.289       .  A
C852       C1181   1.468       .  S
Zr853       O854   2.434       .  S
Zr853       O855   2.435       .  S
Zr853       O859   2.372       .  S
Zr853       O860   2.359       .  S
Zr853      O1305   2.367       .  S
O854        H897   0.990       .  S
O855        H896   0.989       .  S
O855        H900   0.990       .  S
Zr856       O857   2.436       .  S
Zr856       O858   2.435       .  S
Zr856       O860   2.358       .  S
Zr856       O859   2.365       .  S
Zr856      O1304   2.354       .  S
O857        H898   0.990       .  S
O857        H901   0.990       .  S
O858        H891   0.990       .  S
O859      Zr1299   2.381       .  S
O860        H887   0.963       .  S
O861       Zr873   2.412       .  S
O861       C1283   1.283   1_545  A
O862       Zr880   2.455       .  S
O862        C863   1.292       .  A
C863       O1281   1.283       .  A
C863       C1234   1.476       .  S
O864       Zr876   2.415       .  S
O865       Zr879   2.446       .  S
O865        C866   1.292       .  A
C866       C1167   1.495       .  S
O867       Zr876   2.426       .  S
O867       C1289   1.284   1_545  A
O868       Zr880   2.454       .  S
O868        C869   1.292       .  A
C869       O1287   1.284       .  A
C869       C1209   1.475       .  S
O870       Zr873   2.422       .  S
O871       Zr879   2.433       .  S
O871        C872   1.288       .  A
C872       C1195   1.468       .  S
Zr873       O874   2.437       .  S
Zr873       O875   2.434       .  S
Zr873       O881   2.367       .  S
Zr873       O882   2.363       .  S
Zr873      O1303   2.371   1_545  S
O874        H894   0.990       .  S
O874        H899   0.990       .  S
O875        H895   0.990       .  S
Zr876       O877   2.434       .  S
Zr876       O878   2.434       .  S
Zr876       O882   2.366       .  S
Zr876       O881   2.364       .  S
Zr876      O1306   2.364   1_545  S
O877        H893   0.990       .  S
O878        H892   0.990       .  S
O878        H902   0.990       .  S
Zr879      O1279   2.381   1_545  S
Zr879       O884   2.391       .  S
Zr879       O885   2.395       .  S
Zr880      O1301   2.389       .  S
Zr880       O883   2.396       .  S
Zr880       O886   2.393       .  S
O881      Zr1300   2.389   1_545  S
O881        H889   0.966       .  S
O883      Zr1293   2.371       .  S
O884      Zr1276   2.354   1_545  S
O884        H888   0.966       .  S
O885      Zr1273   2.367   1_545  S
O885        H890   0.966       .  S
O886      Zr1296   2.364       .  S
C903       C1192   1.483       .  S
C903        C904   1.403       .  A
C903        C908   1.405       .  A
C904        C905   1.402   1_655  A
C904        H909   1.084       .  S
C905       C1178   1.479       .  S
C905        C906   1.400   1_455  A
C906        C907   1.399       .  A
C906        H910   1.084       .  S
C907       C1012   1.466       .  S
C907        C908   1.403       .  A
C908        H911   1.084       .  S
C912       C1237   1.482   1_545  S
C912        C913   1.407       .  A
C912        C917   1.397       .  A
C913        C914   1.414       .  A
C913        H918   1.081       .  S
C914       C1251   1.509       .  S
C914        C915   1.415       .  A
C915        C916   1.401       .  A
C915        H919   1.082       .  S
C916        C941   1.470       .  S
C916        C917   1.396       .  A
C917        H920   1.084       .  S
C921       C1206   1.499   1_545  S
C921        C922   1.410       .  A
C921        C926   1.408       .  A
C922        C923   1.403       .  A
C922        H927   1.083       .  S
C923       C1223   1.477       .  S
C923        C924   1.401       .  A
C924        C925   1.400       .  A
C924        H928   1.084       .  S
C925       C1021   1.470       .  S
C925        C926   1.402       .  A
C926        H929   1.083       .  S
C930       C1164   1.473       .  S
C930        C931   1.401       .  A
C930        C935   1.404       .  A
C931        C932   1.400       .  A
C931        H936   1.084       .  S
C932       C1150   1.467   1_655  S
C932        C933   1.400       .  A
C933        C934   1.399       .  A
C933        H937   1.084   1_655  S
C934       C1030   1.468       .  S
C934        C935   1.401       .  A
C935        H938   1.084       .  S
C939       C1139   1.496       .  S
C939        C940   1.405       .  A
C939       C1364   1.413       .  A
C940       C1361   1.397       .  A
C940        H945   1.083       .  S
C941       C1360   1.397   1_545  A
C941        C942   1.397       .  A
C942        C943   1.405       .  A
C942        H946   1.084       .  S
C943       C1122   1.482       .  S
C943        C944   1.408       .  A
C944       C1359   1.413   1_545  A
C944        H947   1.083       .  S
O948       Zr960   2.440       .  S
O948        C950   1.289       .  A
O949       Zr986   2.456       .  S
O949        C950   1.293       .  A
C950       C1052   1.499       .  S
O951       Zr963   2.420       .  S
O951        C953   1.286       .  A
O952       Zr987   2.442       .  S
O952        C953   1.289       .  A
C953       C1080   1.484       .  S
O954       Zr963   2.409       .  S
O954        C956   1.283       .  A
O955       Zr986   2.472   1_554  S
O955        C956   1.296       .  A
C956       C1136   1.490       .  S
O957       Zr960   2.424       .  S
O957        C959   1.286       .  A
O958       Zr987   2.449   1_556  S
O958        C959   1.291       .  A
C959       C1111   1.491       .  S
Zr960       O961   2.434       .  S
Zr960       O962   2.432       .  S
Zr960       O966   2.365       .  S
Zr960       O967   2.367       .  S
Zr960       O990   2.371       .  S
Zr960       O992   2.360       .  S
O961       H1004   0.990       .  S
O962       H1003   0.989       .  S
O962       H1007   0.990       .  S
Zr963       O964   2.436       .  S
Zr963       O965   2.436       .  S
Zr963       O967   2.360   1_554  S
Zr963       O966   2.369   1_554  S
Zr963       O991   2.367       .  S
Zr963       O993   2.366       .  S
O964       H1005   0.990       .  S
O964       H1008   0.990       .  S
O965        H998   0.990       .  S
O966       Zr986   2.393       .  S
O967       Zr987   2.397   1_556  S
O967        H994   0.966       .  S
O968       Zr980   2.441       .  S
O968        C970   1.287       .  A
O969       Zr987   2.445   1_556  S
O969        C970   1.290       .  A
C970       C1038   1.477       .  S
O971       Zr983   2.403       .  S
O971        C973   1.282       .  A
O972       Zr986   2.463   1_554  S
O972        C973   1.294       .  A
C973       C1066   1.490       .  S
O974       Zr983   2.411       .  S
O974        C976   1.284       .  A
O975       Zr987   2.463       .  S
O975        C976   1.293       .  A
C976       C1125   1.502       .  S
O977       Zr980   2.415       .  S
O977        C979   1.285       .  A
O978       Zr986   2.467       .  S
O978        C979   1.295       .  A
C979       C1094   1.492       .  S
Zr980       O981   2.435       .  S
Zr980       O982   2.434       .  S
Zr980       O988   2.356   1_556  S
Zr980       O989   2.373   1_556  S
Zr980       O992   2.372       .  S
Zr980       O990   2.364       .  S
O981       H1001   0.990       .  S
O981       H1006   0.990       .  S
O982       H1002   0.990       .  S
Zr983       O984   2.434       .  S
Zr983       O985   2.434       .  S
Zr983       O989   2.367       .  S
Zr983       O988   2.357       .  S
Zr983       O993   2.361       .  S
Zr983       O991   2.357       .  S
O984       H1000   0.990       .  S
O985        H999   0.990       .  S
O985       H1009   0.990       .  S
Zr986       O989   2.396   1_556  S
Zr986       O991   2.397   1_556  S
Zr986       O992   2.398       .  S
Zr987       O988   2.387       .  S
Zr987       O990   2.391   1_554  S
Zr987       O993   2.392       .  S
O988        H996   0.965       .  S
O991        H995   0.966       .  S
O992        H997   0.966       .  S
C1010      C1069   1.496       .  S
C1010      C1011   1.408       .  A
C1010      C1015   1.412       .  A
C1011      C1012   1.397       .  A
C1011      H1016   1.083       .  S
C1013      C1014   1.402       .  A
C1013      H1017   1.084       .  S
C1014      C1083   1.489       .  S
C1015      H1018   1.082       .  S
C1019      C1055   1.491       .  S
C1019      C1020   1.400       .  A
C1019      C1444   1.408       .  A
C1020      C1441   1.397       .  A
C1020      H1025   1.085       .  S
C1021      C1440   1.397   1_545  A
C1021      C1022   1.400       .  A
C1022      C1023   1.411       .  A
C1022      H1026   1.083       .  S
C1023      C1041   1.498       .  S
C1023      C1024   1.415       .  A
C1024      C1439   1.408   1_545  A
C1024      H1027   1.083       .  S
C1028      C1097   1.494       .  S
C1028      C1029   1.410       .  A
C1028      C1033   1.413       .  A
C1029      C1030   1.397       .  A
C1029      H1034   1.084       .  S
C1031      C1032   1.402       .  A
C1031      H1035   1.085       .  S
C1032      C1108   1.483       .  S
C1033      H1036   1.083       .  S
C1037      C1038   1.401       .  A
C1037      C1042   1.409       .  A
C1037      H1044   1.084       .  S
C1038      C1039   1.413       .  A
C1039      C1040   1.404       .  A
C1039      N1046   1.441       .  S
C1040      C1041   1.406       .  A
C1040      H1045   1.083       .  S
C1041      C1042   1.422       .  A
C1042      N1043   1.439       .  S
N1043      O1047   1.263       .  A
N1043      O1048   1.263       .  A
N1046      O1049   1.262   1_556  A
N1046      O1050   1.263       .  A
C1051      C1052   1.408       .  A
C1051      C1056   1.412       .  A
C1051      H1058   1.081       .  S
C1052      C1053   1.417       .  A
C1053      C1054   1.400       .  A
C1053      N1060   1.436       .  S
C1054      C1055   1.402       .  A
C1054      H1059   1.084       .  S
C1055      C1056   1.416       .  A
C1056      N1057   1.438       .  S
N1057      O1061   1.261       .  A
N1057      O1062   1.263       .  A
N1060      O1063   1.263       .  A
N1060      O1064   1.262       .  A
C1065      C1066   1.406       .  A
C1065      C1070   1.396       .  A
C1065      H1072   1.084       .  S
C1066      C1067   1.412       .  A
C1067      C1068   1.409       .  A
C1067      N1074   1.432       .  S
C1068      C1069   1.411       .  A
C1068      H1073   1.083       .  S
C1069      C1070   1.417       .  A
C1070      N1071   1.437       .  S
N1071      O1075   1.263       .  A
N1071      O1076   1.263       .  A
N1074      O1077   1.262       .  A
N1074      O1078   1.261       .  A
C1079      C1080   1.405       .  A
C1079      C1084   1.397       .  A
C1079      H1086   1.084       .  S
C1080      C1081   1.413       .  A
C1081      C1082   1.405       .  A
C1081      N1088   1.430       .  S
C1082      C1083   1.406       .  A
C1082      H1087   1.083       .  S
C1083      C1084   1.418       .  A
C1084      N1085   1.439       .  S
N1085      O1089   1.263       .  A
N1085      O1090   1.263       .  A
N1088      O1091   1.262       .  A
N1088      O1092   1.262       .  A
C1093      C1094   1.405       .  A
C1093      C1098   1.414       .  A
C1093      H1100   1.080       .  S
C1094      C1095   1.417       .  A
C1095      C1096   1.396       .  A
C1095      N1102   1.438       .  S
C1096      C1097   1.402       .  A
C1096      H1101   1.083       .  S
C1097      C1098   1.421       .  A
C1098      N1099   1.439       .  S
N1099      O1103   1.263       .  A
N1099      O1104   1.263       .  A
N1102      O1105   1.263       .  A
N1102      O1106   1.263       .  A
C1107      C1108   1.400       .  A
C1107      C1112   1.390       .  A
C1107      H1114   1.084       .  S
C1108      C1109   1.418       .  A
C1109      C1110   1.415       .  A
C1109      N1116   1.442       .  S
C1110      C1111   1.409       .  A
C1110      H1115   1.081       .  S
C1111      C1112   1.416       .  A
C1112      N1113   1.434       .  S
N1113      O1117   1.262       .  A
N1113      O1118   1.263       .  A
N1116      O1119   1.262       .  A
N1116      O1120   1.262       .  A
C1121      C1122   1.406       .  A
C1121      C1126   1.415       .  A
C1121      H1128   1.084       .  S
C1122      C1123   1.408       .  A
C1123      C1124   1.395       .  A
C1123      N1130   1.441       .  S
C1124      C1125   1.413       .  A
C1124      H1129   1.082       .  S
C1125      C1126   1.420       .  A
C1126      N1127   1.435       .  S
N1127      O1131   1.263       .  A
N1127      O1132   1.263       .  A
N1130      O1133   1.263       .  A
N1130      O1134   1.263       .  A
C1135      C1136   1.405       .  A
C1135      C1140   1.400       .  A
C1135      H1142   1.084       .  S
C1136      C1137   1.409       .  A
C1137      C1138   1.407       .  A
C1137      N1144   1.426       .  S
C1138      C1139   1.408       .  A
C1138      H1143   1.083       .  S
C1139      C1140   1.419       .  A
C1140      N1141   1.437       .  S
N1141      O1145   1.263       .  A
N1141      O1146   1.263       .  A
N1144      O1147   1.261       .  A
N1144      O1148   1.262       .  A
C1149      C1154   1.409       .  A
C1149      H1156   1.084       .  S
C1150      C1151   1.407   1_455  A
C1151      C1152   1.393       .  A
C1151      N1158   1.443       .  S
C1152      H1157   1.082       .  S
C1153      C1154   1.414       .  A
C1154      N1155   1.434       .  S
N1155      O1159   1.262       .  A
N1155      O1160   1.262       .  A
N1158      O1161   1.262       .  A
N1158      O1162   1.263       .  A
C1163      C1168   1.391       .  A
C1163      H1170   1.085       .  S
C1164      C1165   1.420       .  A
C1165      C1166   1.413       .  A
C1165      N1172   1.448       .  S
C1166      C1167   1.409       .  A
C1166      H1171   1.083       .  S
C1168      N1169   1.431       .  S
N1169      O1173   1.262       .  A
N1169      O1174   1.262       .  A
N1172      O1175   1.262       .  A
N1172      O1176   1.263       .  A
C1177      C1178   1.400   1_655  A
C1177      C1182   1.396       .  A
C1177      H1184   1.084       .  S
C1179      C1180   1.407       .  A
C1179      N1186   1.440       .  S
C1180      C1181   1.401       .  A
C1180      H1185   1.083       .  S
C1182      N1183   1.439       .  S
N1183      O1187   1.263       .  A
N1183      O1188   1.261       .  A
N1186      O1189   1.263       .  A
N1186      O1190   1.263       .  A
C1191      C1196   1.398       .  A
C1191      H1198   1.084       .  S
C1192      C1193   1.418       .  A
C1193      C1194   1.407       .  A
C1193      N1200   1.439       .  S
C1194      C1195   1.401       .  A
C1194      H1199   1.084       .  S
C1196      N1197   1.442       .  S
N1197      O1201   1.263       .  A
N1197      O1202   1.263       .  A
N1200      O1203   1.263       .  A
N1200      O1204   1.262       .  A
C1205      C1206   1.405   1_545  A
C1205      C1210   1.399   1_545  A
C1205      H1212   1.082       .  S
C1206      C1627   1.424       .  A
C1207      C1626   1.424       .  A
C1207      C1208   1.411       .  A
C1207      N1214   1.438       .  S
C1208      C1209   1.401       .  A
C1208      H1213   1.084       .  S
C1209      C1630   1.408       .  A
C1210      C1629   1.408       .  A
C1210      N1211   1.433   1_565  S
N1211      O1215   1.262       .  A
N1211      O1636   1.260   1_545  A
N1214      O1637   1.263       .  A
N1214      O1218   1.263       .  A
O1216      N1631   1.260       .  A
O1217      N1634   1.263       .  A
C1219      C1220   1.414   1_565  A
C1219      C1224   1.398       .  A
C1219      H1646   1.083       .  S
C1220      C1221   1.420       .  A
C1221      C1222   1.409       .  A
C1221      N1228   1.434       .  S
C1222      C1223   1.404       .  A
C1222      H1227   1.084       .  S
C1223      C1224   1.408   1_545  A
C1224      N1645   1.441       .  S
N1225      C1644   1.441       .  S
N1225      O1229   1.263       .  A
N1225      O1650   1.262       .  A
H1226      C1639   1.083       .  S
N1228      O1231   1.261       .  A
N1228      O1232   1.262       .  A
O1230      N1645   1.262       .  A
C1233      C1654   1.403   1_545  A
C1233      C1238   1.392       .  A
C1233      H1240   1.085       .  S
C1234      C1653   1.403       .  A
C1234      C1235   1.418       .  A
C1235      C1236   1.415       .  A
C1235      N1242   1.444       .  S
C1236      C1657   1.409       .  A
C1236      H1241   1.083       .  S
C1237      C1656   1.409       .  A
C1237      C1238   1.409   1_565  A
C1238      N1239   1.438       .  S
N1239      O1243   1.263       .  A
N1239      O1244   1.263       .  A
N1242      O1245   1.262       .  A
N1242      O1246   1.263       .  A
C1247      C1248   1.397       .  A
C1247      C1252   1.403       .  A
C1247      H1254   1.081       .  S
C1248      C1249   1.415       .  A
C1249      C1250   1.405       .  A
C1249      N1256   1.446       .  S
C1250      C1251   1.411       .  A
C1250      H1255   1.080       .  S
C1251      C1252   1.423       .  A
C1252      N1253   1.433       .  S
N1253      O1677   1.263       .  A
N1253      O1258   1.261       .  A
N1256      O1259   1.263       .  A
N1256      O1260   1.263       .  A
O1257      N1673   1.263       .  A
O1261     Zr1273   2.424   1_545  S
O1262     Zr1299   2.446       .  S
O1262      C1263   1.291       .  A
C1263      C1668   1.476       .  S
O1264     Zr1276   2.407       .  S
O1265     Zr1300   2.452       .  S
O1265      C1266   1.290       .  A
C1266      C1573   1.485       .  S
O1267     Zr1276   2.412       .  S
O1268     Zr1299   2.451       .  S
O1268      C1269   1.290       .  A
C1269      C1640   1.500       .  S
O1270     Zr1273   2.429       .  S
O1271     Zr1300   2.438       .  S
O1271      C1272   1.289       .  A
C1272      C1601   1.468       .  S
Zr1273     O1274   2.434       .  S
Zr1273     O1275   2.435       .  S
Zr1273     O1279   2.372       .  S
Zr1273     O1280   2.359       .  S
O1274      H1317   0.990       .  S
O1275      H1316   0.989       .  S
O1275      H1320   0.990       .  S
Zr1276     O1277   2.436       .  S
Zr1276     O1278   2.435       .  S
Zr1276     O1280   2.358       .  S
Zr1276     O1279   2.365       .  S
O1277      H1318   0.990       .  S
O1277      H1321   0.990       .  S
O1278      H1311   0.990       .  S
O1280      H1307   0.963       .  S
O1281     Zr1293   2.412       .  S
O1282     Zr1300   2.455       .  S
O1282      C1283   1.292       .  A
C1283      C1654   1.476       .  S
O1284     Zr1296   2.415       .  S
O1285     Zr1299   2.446       .  S
O1285      C1286   1.292       .  A
C1286      C1587   1.495       .  S
O1287     Zr1296   2.426       .  S
O1288     Zr1300   2.454       .  S
O1288      C1289   1.292       .  A
C1289      C1629   1.475       .  S
O1290     Zr1293   2.422       .  S
O1291     Zr1299   2.433       .  S
O1291      C1292   1.288       .  A
C1292      C1615   1.468       .  S
Zr1293     O1294   2.437       .  S
Zr1293     O1295   2.434       .  S
Zr1293     O1301   2.367       .  S
Zr1293     O1302   2.363       .  S
O1294      H1314   0.990       .  S
O1294      H1319   0.990       .  S
O1295      H1315   0.990       .  S
Zr1296     O1297   2.434       .  S
Zr1296     O1298   2.434       .  S
Zr1296     O1302   2.366       .  S
Zr1296     O1301   2.364       .  S
O1297      H1313   0.990       .  S
O1298      H1312   0.990       .  S
O1298      H1322   0.990       .  S
Zr1299     O1304   2.391       .  S
Zr1299     O1305   2.395       .  S
Zr1300     O1303   2.396       .  S
Zr1300     O1306   2.393       .  S
O1301      H1309   0.966       .  S
O1304      H1308   0.966       .  S
O1305      H1310   0.966       .  S
C1323      C1612   1.483       .  S
C1323      C1324   1.403       .  A
C1323      C1328   1.405       .  A
C1324      C1325   1.402   1_655  A
C1324      H1329   1.084       .  S
C1325      C1598   1.479       .  S
C1325      C1326   1.400   1_455  A
C1326      C1327   1.399       .  A
C1326      H1330   1.084       .  S
C1327      C1432   1.466       .  S
C1327      C1328   1.403       .  A
C1328      H1331   1.084       .  S
C1332      C1657   1.482       .  S
C1332      C1333   1.407       .  A
C1332      C1337   1.397       .  A
C1333      C1334   1.414       .  A
C1333      H1338   1.081       .  S
C1334      C1671   1.509       .  S
C1334      C1335   1.415       .  A
C1335      C1336   1.401       .  A
C1335      H1339   1.082       .  S
C1336      C1361   1.470       .  S
C1336      C1337   1.396       .  A
C1337      H1340   1.084       .  S
C1341      C1626   1.499       .  S
C1341      C1342   1.410       .  A
C1341      C1346   1.408       .  A
C1342      C1343   1.403       .  A
C1342      H1347   1.083       .  S
C1343      C1643   1.477       .  S
C1343      C1344   1.401       .  A
C1344      C1345   1.400       .  A
C1344      H1348   1.084       .  S
C1345      C1441   1.470       .  S
C1345      C1346   1.402       .  A
C1346      H1349   1.083       .  S
C1350      C1584   1.473       .  S
C1350      C1351   1.401       .  A
C1350      C1355   1.404       .  A
C1351      C1352   1.400       .  A
C1351      H1356   1.084       .  S
C1352      C1570   1.467   1_655  S
C1352      C1353   1.400       .  A
C1353      C1354   1.399       .  A
C1353      H1357   1.084   1_655  S
C1354      C1450   1.468       .  S
C1354      C1355   1.401       .  A
C1355      H1358   1.084       .  S
C1359      C1559   1.496       .  S
C1359      C1360   1.405       .  A
C1360      H1365   1.083       .  S
C1361      C1362   1.397       .  A
C1362      C1363   1.405       .  A
C1362      H1366   1.084       .  S
C1363      C1542   1.482       .  S
C1363      C1364   1.408       .  A
C1364      H1367   1.083       .  S
O1368     Zr1380   2.440       .  S
O1368      C1370   1.289       .  A
O1369     Zr1406   2.456       .  S
O1369      C1370   1.293       .  A
C1370      C1472   1.499       .  S
O1371     Zr1383   2.420       .  S
O1371      C1373   1.286       .  A
O1372     Zr1407   2.442       .  S
O1372      C1373   1.289       .  A
C1373      C1500   1.484       .  S
O1374     Zr1383   2.409       .  S
O1374      C1376   1.283       .  A
O1375     Zr1406   2.472   1_554  S
O1375      C1376   1.296       .  A
C1376      C1556   1.490       .  S
O1377     Zr1380   2.424       .  S
O1377      C1379   1.286       .  A
O1378     Zr1407   2.449   1_556  S
O1378      C1379   1.291       .  A
C1379      C1531   1.491       .  S
Zr1380     O1381   2.434       .  S
Zr1380     O1382   2.432       .  S
Zr1380     O1386   2.365       .  S
Zr1380     O1387   2.367       .  S
Zr1380     O1410   2.371       .  S
Zr1380     O1412   2.360       .  S
O1381      H1424   0.990       .  S
O1382      H1423   0.989       .  S
O1382      H1427   0.990       .  S
Zr1383     O1384   2.436       .  S
Zr1383     O1385   2.436       .  S
Zr1383     O1387   2.360   1_554  S
Zr1383     O1386   2.369   1_554  S
Zr1383     O1411   2.367       .  S
Zr1383     O1413   2.366       .  S
O1384      H1425   0.990       .  S
O1384      H1428   0.990       .  S
O1385      H1418   0.990       .  S
O1386     Zr1406   2.393       .  S
O1387     Zr1407   2.397   1_556  S
O1387      H1414   0.966       .  S
O1388     Zr1400   2.441       .  S
O1388      C1390   1.287       .  A
O1389     Zr1407   2.445   1_556  S
O1389      C1390   1.290       .  A
C1390      C1458   1.477       .  S
O1391     Zr1403   2.403       .  S
O1391      C1393   1.282       .  A
O1392     Zr1406   2.463   1_554  S
O1392      C1393   1.294       .  A
C1393      C1486   1.490       .  S
O1394     Zr1403   2.411       .  S
O1394      C1396   1.284       .  A
O1395     Zr1407   2.463       .  S
O1395      C1396   1.293       .  A
C1396      C1545   1.502       .  S
O1397     Zr1400   2.415       .  S
O1397      C1399   1.285       .  A
O1398     Zr1406   2.467       .  S
O1398      C1399   1.295       .  A
C1399      C1514   1.492       .  S
Zr1400     O1401   2.435       .  S
Zr1400     O1402   2.434       .  S
Zr1400     O1408   2.356   1_556  S
Zr1400     O1409   2.373   1_556  S
Zr1400     O1412   2.372       .  S
Zr1400     O1410   2.364       .  S
O1401      H1421   0.990       .  S
O1401      H1426   0.990       .  S
O1402      H1422   0.990       .  S
Zr1403     O1404   2.434       .  S
Zr1403     O1405   2.434       .  S
Zr1403     O1409   2.367       .  S
Zr1403     O1408   2.357       .  S
Zr1403     O1413   2.361       .  S
Zr1403     O1411   2.357       .  S
O1404      H1420   0.990       .  S
O1405      H1419   0.990       .  S
O1405      H1429   0.990       .  S
Zr1406     O1409   2.396   1_556  S
Zr1406     O1411   2.397   1_556  S
Zr1406     O1412   2.398       .  S
Zr1407     O1408   2.387       .  S
Zr1407     O1410   2.391   1_554  S
Zr1407     O1413   2.392       .  S
O1408      H1416   0.965       .  S
O1411      H1415   0.966       .  S
O1412      H1417   0.966       .  S
C1430      C1489   1.496       .  S
C1430      C1431   1.408       .  A
C1430      C1435   1.412       .  A
C1431      C1432   1.397       .  A
C1431      H1436   1.083       .  S
C1433      C1434   1.402       .  A
C1433      H1437   1.084       .  S
C1434      C1503   1.489       .  S
C1435      H1438   1.082       .  S
C1439      C1475   1.491       .  S
C1439      C1440   1.400       .  A
C1440      H1445   1.085       .  S
C1441      C1442   1.400       .  A
C1442      C1443   1.411       .  A
C1442      H1446   1.083       .  S
C1443      C1461   1.498       .  S
C1443      C1444   1.415       .  A
C1444      H1447   1.083       .  S
C1448      C1517   1.494       .  S
C1448      C1449   1.410       .  A
C1448      C1453   1.413       .  A
C1449      C1450   1.397       .  A
C1449      H1454   1.084       .  S
C1451      C1452   1.402       .  A
C1451      H1455   1.085       .  S
C1452      C1528   1.483       .  S
C1453      H1456   1.083       .  S
C1457      C1458   1.401       .  A
C1457      C1462   1.409       .  A
C1457      H1464   1.084       .  S
C1458      C1459   1.413       .  A
C1459      C1460   1.404       .  A
C1459      N1466   1.441       .  S
C1460      C1461   1.406       .  A
C1460      H1465   1.083       .  S
C1461      C1462   1.422       .  A
C1462      N1463   1.439       .  S
N1463      O1467   1.263       .  A
N1463      O1468   1.263       .  A
N1466      O1469   1.262   1_556  A
N1466      O1470   1.263       .  A
C1471      C1472   1.408       .  A
C1471      C1476   1.412       .  A
C1471      H1478   1.081       .  S
C1472      C1473   1.417       .  A
C1473      C1474   1.400       .  A
C1473      N1480   1.436       .  S
C1474      C1475   1.402       .  A
C1474      H1479   1.084       .  S
C1475      C1476   1.416       .  A
C1476      N1477   1.438       .  S
N1477      O1481   1.261       .  A
N1477      O1482   1.263       .  A
N1480      O1483   1.263       .  A
N1480      O1484   1.262       .  A
C1485      C1486   1.406       .  A
C1485      C1490   1.396       .  A
C1485      H1492   1.084       .  S
C1486      C1487   1.412       .  A
C1487      C1488   1.409       .  A
C1487      N1494   1.432       .  S
C1488      C1489   1.411       .  A
C1488      H1493   1.083       .  S
C1489      C1490   1.417       .  A
C1490      N1491   1.437       .  S
N1491      O1495   1.263       .  A
N1491      O1496   1.263       .  A
N1494      O1497   1.262       .  A
N1494      O1498   1.261       .  A
C1499      C1500   1.405       .  A
C1499      C1504   1.397       .  A
C1499      H1506   1.084       .  S
C1500      C1501   1.413       .  A
C1501      C1502   1.405       .  A
C1501      N1508   1.430       .  S
C1502      C1503   1.406       .  A
C1502      H1507   1.083       .  S
C1503      C1504   1.418       .  A
C1504      N1505   1.439       .  S
N1505      O1509   1.263       .  A
N1505      O1510   1.263       .  A
N1508      O1511   1.262       .  A
N1508      O1512   1.262       .  A
C1513      C1514   1.405       .  A
C1513      C1518   1.414       .  A
C1513      H1520   1.080       .  S
C1514      C1515   1.417       .  A
C1515      C1516   1.396       .  A
C1515      N1522   1.438       .  S
C1516      C1517   1.402       .  A
C1516      H1521   1.083       .  S
C1517      C1518   1.421       .  A
C1518      N1519   1.439       .  S
N1519      O1523   1.263       .  A
N1519      O1524   1.263       .  A
N1522      O1525   1.263       .  A
N1522      O1526   1.263       .  A
C1527      C1528   1.400       .  A
C1527      C1532   1.390       .  A
C1527      H1534   1.084       .  S
C1528      C1529   1.418       .  A
C1529      C1530   1.415       .  A
C1529      N1536   1.442       .  S
C1530      C1531   1.409       .  A
C1530      H1535   1.081       .  S
C1531      C1532   1.416       .  A
C1532      N1533   1.434       .  S
N1533      O1537   1.262       .  A
N1533      O1538   1.263       .  A
N1536      O1539   1.262       .  A
N1536      O1540   1.262       .  A
C1541      C1542   1.406       .  A
C1541      C1546   1.415       .  A
C1541      H1548   1.084       .  S
C1542      C1543   1.408       .  A
C1543      C1544   1.395       .  A
C1543      N1550   1.441       .  S
C1544      C1545   1.413       .  A
C1544      H1549   1.082       .  S
C1545      C1546   1.420       .  A
C1546      N1547   1.435       .  S
N1547      O1551   1.263       .  A
N1547      O1552   1.263       .  A
N1550      O1553   1.263       .  A
N1550      O1554   1.263       .  A
C1555      C1556   1.405       .  A
C1555      C1560   1.400       .  A
C1555      H1562   1.084       .  S
C1556      C1557   1.409       .  A
C1557      C1558   1.407       .  A
C1557      N1564   1.426       .  S
C1558      C1559   1.408       .  A
C1558      H1563   1.083       .  S
C1559      C1560   1.419       .  A
C1560      N1561   1.437       .  S
N1561      O1565   1.263       .  A
N1561      O1566   1.263       .  A
N1564      O1567   1.261       .  A
N1564      O1568   1.262       .  A
C1569      C1574   1.409       .  A
C1569      H1576   1.084       .  S
C1570      C1571   1.407   1_455  A
C1571      C1572   1.393       .  A
C1571      N1578   1.443       .  S
C1572      H1577   1.082       .  S
C1573      C1574   1.414       .  A
C1574      N1575   1.434       .  S
N1575      O1579   1.262       .  A
N1575      O1580   1.262       .  A
N1578      O1581   1.262       .  A
N1578      O1582   1.263       .  A
C1583      C1588   1.391       .  A
C1583      H1590   1.085       .  S
C1584      C1585   1.420       .  A
C1585      C1586   1.413       .  A
C1585      N1592   1.448       .  S
C1586      C1587   1.409       .  A
C1586      H1591   1.083       .  S
C1588      N1589   1.431       .  S
N1589      O1593   1.262       .  A
N1589      O1594   1.262       .  A
N1592      O1595   1.262       .  A
N1592      O1596   1.263       .  A
C1597      C1598   1.400   1_655  A
C1597      C1602   1.396       .  A
C1597      H1604   1.084       .  S
C1599      C1600   1.407       .  A
C1599      N1606   1.440       .  S
C1600      C1601   1.401       .  A
C1600      H1605   1.083       .  S
C1602      N1603   1.439       .  S
N1603      O1607   1.263       .  A
N1603      O1608   1.261       .  A
N1606      O1609   1.263       .  A
N1606      O1610   1.263       .  A
C1611      C1616   1.398       .  A
C1611      H1618   1.084       .  S
C1612      C1613   1.418       .  A
C1613      C1614   1.407       .  A
C1613      N1620   1.439       .  S
C1614      C1615   1.401       .  A
C1614      H1619   1.084       .  S
C1616      N1617   1.442       .  S
N1617      O1621   1.263       .  A
N1617      O1622   1.263       .  A
N1620      O1623   1.263       .  A
N1620      O1624   1.262       .  A
C1625      C1626   1.405       .  A
C1625      C1630   1.399       .  A
C1625      H1632   1.082       .  S
C1627      C1628   1.411       .  A
C1627      N1634   1.438       .  S
C1628      C1629   1.401       .  A
C1628      H1633   1.084       .  S
C1630      N1631   1.433       .  S
N1631      O1635   1.262       .  A
N1634      O1638   1.263       .  A
C1639      C1640   1.414       .  A
C1639      C1644   1.398       .  A
C1640      C1641   1.420       .  A
C1641      C1642   1.409       .  A
C1641      N1648   1.434       .  S
C1642      C1643   1.404       .  A
C1642      H1647   1.084       .  S
C1643      C1644   1.408       .  A
N1645      O1649   1.263       .  A
N1648      O1651   1.261       .  A
N1648      O1652   1.262       .  A
C1653      C1658   1.392       .  A
C1653      H1660   1.085       .  S
C1654      C1655   1.418       .  A
C1655      C1656   1.415       .  A
C1655      N1662   1.444       .  S
C1656      H1661   1.083       .  S
C1657      C1658   1.409       .  A
C1658      N1659   1.438       .  S
N1659      O1663   1.263       .  A
N1659      O1664   1.263       .  A
N1662      O1665   1.262       .  A
N1662      O1666   1.263       .  A
C1667      C1668   1.397       .  A
C1667      C1672   1.403       .  A
C1667      H1674   1.081       .  S
C1668      C1669   1.415       .  A
C1669      C1670   1.405       .  A
C1669      N1676   1.446       .  S
C1670      C1671   1.411       .  A
C1670      H1675   1.080       .  S
C1671      C1672   1.423       .  A
C1672      N1673   1.433       .  S
N1673      O1678   1.261       .  A
N1676      O1679   1.263       .  A
N1676      O1680   1.263       .  A
