geometry optimzed in LAMMPS
_audit_creation_date              2020-11-30 
_audit_creation_method            'lammps2cif' 
_symmetry_space_group_name_H-M    'P1' 
_symmetry_Int_Tables_number       1 
_symmetry_cell_setting            triclinic 
loop_ 
_symmetry_equiv_pos_as_xyz 
  x,y,z 
_cell_length_a                    35.49641034901915 
_cell_length_b                    37.03790641356837 
_cell_length_c                    39.284019769256325 
_cell_angle_alpha                 89.86000953118237 
_cell_angle_beta                  89.36944738167634 
_cell_angle_gamma                 90.41593431228509 
loop_ 
_atom_site_label 
_atom_site_type_symbol 
_atom_site_fract_x 
_atom_site_fract_y 
_atom_site_fract_z 
_atom_site_charge 
O1          O  0.41680935  0.47018866  0.48509962    -0.78610
O2          O  0.07611524  0.02825454  0.48181244    -0.78640
O3          O  0.45282236  0.07893646  0.47793498    -0.78640
O4          O  0.00208858  0.43667949  0.44644521    -0.78590
O5          O  0.01112688  0.06283440  0.46595156    -0.78710
O6          O  0.46420289  0.41243575  0.48482990    -0.78630
O7          O  0.05123893  0.49207217  0.44552253    -0.78610
O8          O  0.44710429  0.01027623  0.45297229    -0.78650
C9          C  0.41911163  0.48943940  0.45809083     1.11080
C10         C  0.07768446  0.01304178  0.45312585     1.10960
C11         C  0.48319859  0.08465618  0.46160735     1.11100
C12         C  0.98061374  0.41137353  0.45589773     1.10980
O13         O  0.49273570  0.43385156  0.55048928    -0.78610
O14         O  0.04625137  0.07625560  0.52492739    -0.78690
O15         O  0.42078829  0.02820332  0.51891828    -0.78630
O16         O  0.07894032  0.46923452  0.51279342    -0.78610
O17         O  0.04906977  0.00646246  0.54760742    -0.78660
O18         O  0.44436144  0.48939645  0.55342329    -0.78620
O19         O  0.03046267  0.41179390  0.51102936    -0.78580
O20         O  0.48720439  0.06186453  0.53659944    -0.78650
Co21       Co  0.45679482  0.45376424  0.51807387     1.51530
Co22       Co  0.02756852  0.03211222  0.50839552     1.51690
Co23       Co  0.46961521  0.03334155  0.49301790     1.51570
Co24       Co  0.03841109  0.45469364  0.47943609     1.51470
O25         O  0.49790778  0.48690692  0.49954229    -1.40550
C26         C  0.51469625  0.40959577  0.54020974     1.11000
C27         C  0.51608564  0.08294114  0.54093700     1.11090
C28         C  0.41848524  0.51103878  0.54666587     1.11030
C29         C  0.07677523  0.98624693  0.54098772     1.11010
C30         C  0.49460023  0.21359961  0.37928180     0.04650
C31         C  0.49125449  0.24595687  0.39739908    -0.11500
C32         C  0.48887701  0.27888579  0.38003932     0.02150
C33         C  0.48983088  0.27944275  0.34439067    -0.10020
C34         C  0.49391242  0.24723371  0.32584193     0.04650
C35         C  0.49646397  0.21429531  0.34361739    -0.09440
H36         H  0.48973419  0.24544217  0.42495866     0.10240
H37         H  0.48717275  0.30499784  0.33117328     0.07770
H38         H  0.49931471  0.18915598  0.32981649     0.07620
C39         C  0.28500639  0.50107478  0.37717028     0.04650
C40         C  0.25062294  0.50614818  0.39433445    -0.11500
C41         C  0.21717565  0.51003146  0.37597681     0.02150
C42         C  0.21849664  0.50884404  0.34025083    -0.10020
C43         C  0.25272351  0.50343117  0.32281472     0.04650
C44         C  0.28597325  0.49975541  0.34153456    -0.09440
H45         H  0.24987862  0.50656177  0.42190361     0.10240
H46         H  0.19278809  0.51227147  0.32599752     0.07770
H47         H  0.31257403  0.49525084  0.32845712     0.07620
C48         C  0.27953940  0.50268595  0.62490653     0.04650
C49         C  0.24621156  0.49633799  0.60701531    -0.11500
C50         C  0.21079260  0.49728005  0.62344667     0.02150
C51         C  0.20970115  0.50163004  0.65904811    -0.10020
C52         C  0.24313876  0.50406062  0.67785295     0.04650
C53         C  0.27786234  0.50568037  0.66045301    -0.09440
H54         H  0.24816334  0.49082603  0.58003548     0.10240
H55         H  0.18296523  0.50345446  0.67239870     0.07770
H56         H  0.30364991  0.50899373  0.67462036     0.07620
C57         C  0.50713482  0.21325968  0.62158130     0.04650
C58         C  0.50577058  0.21429262  0.65730823    -0.11500
C59         C  0.50603953  0.24756921  0.67458107     0.02150
C60         C  0.50779102  0.27985650  0.65567125    -0.10020
C61         C  0.50884608  0.27905332  0.62001107     0.04650
C62         C  0.50798974  0.24579008  0.60322016    -0.09440
H63         H  0.50584599  0.18927078  0.67165642     0.10240
H64         H  0.50771803  0.30564288  0.66865137     0.07770
H65         H  0.50879141  0.24523552  0.57564902     0.07620
C66         C  0.25824126  0.46440650  0.12169536     0.04650
C67         C  0.25608961  0.46469330  0.15745046    -0.11500
C68         C  0.25578863  0.49760856  0.17532194     0.02150
C69         C  0.25718400  0.03019822  0.15694145    -0.10020
C70         C  0.25991984  0.03019156  0.12134836     0.04650
C71         C  0.26001587  0.49732354  0.10390150    -0.09440
H72         H  0.25604597  0.43937615  0.17132540     0.10240
H73         H  0.25658363  0.05572342  0.17035954     0.07770
H74         H  0.26133488  0.49739863  0.07633749     0.07620
O75         O  0.29529953  0.32866787  0.02293493    -0.78610
O76         O  0.24408881  0.18832403  0.05261168    -0.78640
O77         O  0.16998556  0.27927181  0.01828620    -0.78640
O78         O  0.32852426  0.22078709  0.01447748    -0.78590
O79         O  0.19445076  0.24243489  0.05407196    -0.78710
O80         O  0.29873642  0.25972361  0.04742155    -0.78630
O81         O  0.28016069  0.16341094  0.01390395    -0.78610
O82         O  0.23630954  0.31415103  0.03493692    -0.78650
C83         C  0.26521175  0.33530345  0.03908304     1.11080
C84         C  0.26469664  0.16268016  0.04332310     1.10960
C85         C  0.16797840  0.26310687  0.04655444     1.11100
C86         C  0.32623315  0.23872400  0.04217160     1.10980
O87         O  0.32596238  0.27936074  0.98187678    -0.78610
O88         O  0.16696686  0.21995329  0.98675288    -0.78690
O89         O  0.20130755  0.32848142  0.97589923    -0.78630
O90         O  0.25151676  0.18750728  0.94882628    -0.78610
O91         O  0.21498884  0.16300407  0.98787359    -0.78660
O92         O  0.26006333  0.31331886  0.96436463    -0.78620
O93         O  0.30199493  0.24181938  0.94630872    -0.78580
O94         O  0.19642582  0.25894003  0.95300440    -0.78650
Co95       Co  0.27704825  0.28394477  0.00760369     1.51530
Co96       Co  0.20734110  0.20559796  0.01997440     1.51690
Co97       Co  0.21880676  0.28389957  0.99224509     1.51570
Co98       Co  0.28830090  0.20560200  0.98122158     1.51470
O99         O  0.24778951  0.23834875  0.00016247    -1.40550
C100        C  0.32807473  0.26339062  0.95361351     1.11000
C101        C  0.16894288  0.23761880  0.95880509     1.11090
C102        C  0.23156205  0.33439840  0.95948228     1.11030
C103        C  0.23036596  0.16200162  0.95839998     1.11010
C104        C  0.02842648  0.25693894  0.12405208     0.04650
C105        C  0.02791556  0.25609294  0.15977165    -0.11500
C106        C  0.49384627  0.25260344  0.17806562     0.02150
C107        C  0.45996150  0.24979183  0.16000089    -0.10020
C108        C  0.46010435  0.24962397  0.12426206     0.04650
C109        C  0.49441623  0.25351902  0.10646367    -0.09440
H110        H  0.05427418  0.25783861  0.17333272     0.10240
H111        H  0.43340402  0.24733800  0.17370610     0.07770
H112        H  0.49466685  0.25348930  0.07889279     0.07620
C113        C  0.23938409  0.46440947  0.87862346     0.04650
C114        C  0.24282174  0.46555759  0.84306661    -0.11500
C115        C  0.24026003  0.49858641  0.82552180     0.02150
C116        C  0.23518584  0.03049275  0.84424072    -0.10020
C117        C  0.23288436  0.02975715  0.87994601     0.04650
C118        C  0.23452270  0.49649399  0.89698189    -0.09440
H119        H  0.24679339  0.44064394  0.82912672     0.10240
H120        H  0.23246573  0.05603375  0.83101424     0.07770
H121        H  0.23241216  0.49552285  0.92449660     0.07620
C122        C  0.03507510  0.24720673  0.87624640     0.04650
C123        C  0.03556088  0.24647543  0.84051984    -0.11500
C124        C  0.50257460  0.25257606  0.82205090     0.02150
C125        C  0.46878746  0.25937446  0.83970972    -0.10020
C126        C  0.46738954  0.25905738  0.87547773     0.04650
C127        C  0.50079033  0.25317496  0.89353804    -0.09440
H128        H  0.06160169  0.24058124  0.82705073     0.10240
H129        H  0.44348707  0.26497131  0.82550362     0.07770
H130        H  0.50010729  0.25300983  0.92108538     0.07620
C131        C  0.20255083  0.06938263  0.92445387     0.25120
C132        C  0.23046791  0.06401148  0.89927523    -0.22990
C133        C  0.25697874  0.09150277  0.89281001     0.20030
C134        C  0.25591364  0.12364263  0.91113759     0.25060
C135        C  0.22831237  0.12915518  0.93678968    -0.22930
C136        C  0.20148235  0.10166620  0.94308843     0.19960
F137        F  0.17432745  0.10589926  0.96732024    -0.12890
F138        F  0.17614461  0.04347470  0.93082083    -0.15250
F139        F  0.28327167  0.14862599  0.90461091    -0.15250
F140        F  0.28515505  0.08662936  0.86962219    -0.12890
C141        C  0.26894748  0.37882101  0.92371959     0.25120
C142        C  0.23382668  0.36524863  0.93531889    -0.22990
C143        C  0.20075144  0.38358724  0.92600375     0.20030
C144        C  0.20287827  0.41544133  0.90702268     0.25060
C145        C  0.23786714  0.42947582  0.89660675    -0.22930
C146        C  0.27087532  0.41072428  0.90445073     0.19960
F147        F  0.30499743  0.42402261  0.89448399    -0.12890
F148        F  0.30151881  0.36221085  0.93219367    -0.15250
F149        F  0.17067414  0.43306046  0.89920369    -0.15250
F150        F  0.16618358  0.37114942  0.93571227    -0.12890
C151        C  0.36095892  0.26448548  0.09232919     0.25120
C152        C  0.35829828  0.23842513  0.06625186    -0.22990
C153        C  0.38866684  0.21458486  0.06118329     0.20030
C154        C  0.42138724  0.21789812  0.08044436     0.25060
C155        C  0.42450160  0.24486900  0.10536607    -0.22930
C156        C  0.39373340  0.26763948  0.11160171     0.19960
F157        F  0.39608522  0.29420073  0.13526679    -0.12890
F158        F  0.33260438  0.28812257  0.09834952    -0.15250
F159        F  0.45020757  0.19471569  0.07463484    -0.15250
F160        F  0.38721493  0.18841282  0.03707455    -0.12890
C161        C  0.12859988  0.23910050  0.09506303     0.25120
C162        C  0.13355045  0.26428187  0.06831838    -0.22990
C163        C  0.10379962  0.28788485  0.06079007     0.20030
C164        C  0.06975265  0.28580536  0.07908943     0.25060
C165        C  0.06472197  0.26006396  0.10518160    -0.22930
C166        C  0.09455336  0.23690593  0.11304738     0.19960
F167        F  0.09021933  0.21092052  0.13726001    -0.12890
F168        F  0.15610779  0.21536432  0.10311960    -0.15250
F169        F  0.04172165  0.30909893  0.07139347    -0.15250
F170        F  0.10735791  0.31270785  0.03544608    -0.12890
C171        C  0.42746821  0.28555154  0.92263630     0.25120
C172        C  0.43076418  0.26311124  0.89387191    -0.22990
C173        C  0.39899154  0.24328267  0.88341714     0.20030
C174        C  0.36509196  0.24507022  0.90168141     0.25060
C175        C  0.36217664  0.26621054  0.93140829    -0.22930
C176        C  0.39363186  0.28698192  0.94128423     0.19960
F177        F  0.39215353  0.30797058  0.96955308    -0.12890
F178        F  0.45708502  0.30606104  0.93287326    -0.15250
F179        F  0.33558686  0.22478369  0.89079267    -0.15250
F180        F  0.40117785  0.22049915  0.85644310    -0.12890
C181        C  0.10444953  0.21510950  0.94254375     0.25120
C182        C  0.13656124  0.23653792  0.93500297    -0.22990
C183        C  0.13558599  0.25964320  0.90640439     0.20030
C184        C  0.10290500  0.26250275  0.88702041     0.25060
C185        C  0.07047941  0.24220820  0.89549957    -0.22930
C186        C  0.07186391  0.21797244  0.92304022     0.19960
F187        F  0.04152569  0.19702469  0.93122234    -0.12890
F188        F  0.10397281  0.19193333  0.96938698    -0.15250
F189        F  0.10241875  0.28657055  0.86089699    -0.15250
F190        F  0.16570650  0.28067235  0.89776148    -0.12890
C191        C  0.23397201  0.09035804  0.10620299     0.25120
C192        C  0.26240718  0.06462656  0.10232037    -0.22990
C193        C  0.29278058  0.07177943  0.07992026     0.20030
C194        C  0.29441731  0.10414181  0.06135017     0.25060
C195        C  0.26568357  0.12985362  0.06496196    -0.22930
C196        C  0.23550456  0.12257404  0.08779656     0.19960
F197        F  0.20626849  0.14579663  0.09121287    -0.12890
F198        F  0.20375848  0.08361318  0.12683036    -0.15250
F199        F  0.32406235  0.11030930  0.03994501    -0.15250
F200        F  0.32099850  0.04749806  0.07626532    -0.12890
C201        C  0.23528011  0.37102996  0.08693088     0.25120
C202        C  0.26390658  0.36698692  0.06211426    -0.22990
C203        C  0.29116514  0.39464167  0.05826812     0.20030
C204        C  0.28961247  0.42559485  0.07825952     0.25060
C205        C  0.26071086  0.43004163  0.10252546    -0.22930
C206        C  0.23379895  0.40228524  0.10707050     0.19960
F207        F  0.20533393  0.40599019  0.13013546    -0.12890
F208        F  0.20864215  0.34494869  0.09162427    -0.15250
F209        F  0.31655908  0.45145025  0.07377096    -0.15250
F210        F  0.31890278  0.39249802  0.03427886    -0.12890
C211        C  0.47789516  0.22891196  0.73092728     0.25120
C212        C  0.50519449  0.24869835  0.71235895    -0.22990
C213        C  0.03156733  0.26980732  0.73013121     0.20030
C214        C  0.03057589  0.27121605  0.76570229     0.25060
C215        C  0.50333247  0.25139122  0.78427857    -0.22930
C216        C  0.47701489  0.23018774  0.76652798     0.19960
F217        F  0.45084434  0.21011107  0.78368687    -0.12890
F218        F  0.45157617  0.20884017  0.71456927    -0.15250
F219        F  0.05589752  0.29250340  0.78199141    -0.15250
F220        F  0.05881139  0.28861251  0.71306211    -0.12890
C221        C  0.26359597  0.02792323  0.73482014     0.25120
C222        C  0.24191531  0.50348610  0.71568949    -0.22990
C223        C  0.22013439  0.47718817  0.73296850     0.20030
C224        C  0.21966563  0.47559083  0.76851813     0.25060
C225        C  0.24151486  0.49983459  0.78768181    -0.22930
C226        C  0.26367388  0.02589986  0.77040277     0.19960
F227        F  0.28598535  0.04909217  0.78792871    -0.12890
F228        F  0.28435723  0.05415332  0.71912472    -0.15250
F229        F  0.19714342  0.45070424  0.78418612    -0.15250
F230        F  0.19987538  0.45235380  0.71539898    -0.12890
C231        C  0.22857127  0.47872760  0.26757644     0.25120
C232        C  0.25369220  0.50147466  0.28508429    -0.22990
C233        C  0.27977315  0.02241114  0.26629249     0.20030
C234        C  0.28077649  0.02067246  0.23076881     0.25060
C235        C  0.25535211  0.49830956  0.21315478    -0.22930
C236        C  0.22929749  0.47725866  0.23195846     0.19960
F237        F  0.20391431  0.45588158  0.21585490    -0.12890
F238        F  0.20363461  0.45749035  0.28498782    -0.15250
F239        F  0.30707307  0.04057810  0.21359415    -0.15250
F240        F  0.30383051  0.04524050  0.28230825    -0.12890
C241        C  0.01696503  0.27351205  0.27029262     0.25120
C242        C  0.49446781  0.24809660  0.28799912    -0.22990
C243        C  0.47187340  0.22408693  0.26927422     0.20030
C244        C  0.47193981  0.22531402  0.23368476     0.25060
C245        C  0.49388182  0.25120119  0.21595415    -0.22930
C246        C  0.01630312  0.27537522  0.23474676     0.19960
F247        F  0.03710574  0.30140533  0.21879769    -0.12890
F248        F  0.04008819  0.29633828  0.28738416    -0.15250
F249        F  0.45100139  0.20062286  0.21659770    -0.15250
F250        F  0.44896363  0.19986926  0.28541797    -0.12890
C251        C  0.04336548  0.36851677  0.58354801     0.25120
C252        C  0.51545158  0.37562331  0.55950528    -0.22990
C253        C  0.48549642  0.35106933  0.55557601     0.20030
C254        C  0.48335863  0.31981390  0.57537229     0.25060
C255        C  0.51088669  0.31278850  0.59985590    -0.22930
C256        C  0.04093963  0.33737720  0.60387409     0.19960
F257        F  0.06823041  0.33084072  0.62698591    -0.12890
F258        F  0.07276717  0.39163978  0.58737654    -0.15250
F259        F  0.45387976  0.29673611  0.57116067    -0.15250
F260        F  0.45791406  0.35760851  0.53276251    -0.12890
C261        C  0.03872606  0.17439822  0.57832861     0.25120
C262        C  0.51013298  0.17859032  0.60295908    -0.22990
C263        C  0.48412099  0.15023446  0.60841489     0.20030
C264        C  0.48615651  0.11861942  0.58881064     0.25060
C265        C  0.51446792  0.11482610  0.56366377    -0.22930
C266        C  0.04080693  0.14310467  0.55887054     0.19960
F267        F  0.06800902  0.14126137  0.53435661    -0.12890
F268        F  0.06483181  0.20085276  0.57292144    -0.15250
F269        F  0.46035328  0.09194634  0.59431507    -0.15250
F270        F  0.45597026  0.15367024  0.63183145    -0.12890
C271        C  0.01825327  0.32729581  0.41461236     0.25120
C272        C  0.48606800  0.31284401  0.39928649    -0.22990
C273        C  0.45150823  0.33087727  0.40252397     0.20030
C274        C  0.44913893  0.36296326  0.42130526     0.25060
C275        C  0.48149796  0.37761418  0.43628367    -0.22930
C276        C  0.01608206  0.35961815  0.43266433     0.19940
F277        F  0.04775029  0.37314286  0.44713727    -0.12890
F278        F  0.05185485  0.31018573  0.41181266    -0.15250
F279        F  0.41563843  0.38005828  0.42418164    -0.15250
F280        F  0.42014850  0.31721426  0.38769488    -0.12890
C281        C  0.45382461  0.13429331  0.42745789     0.25120
C282        C  0.48638395  0.11580661  0.43784185    -0.22990
C283        C  0.02200042  0.12911240  0.42721028     0.20030
C284        C  0.02484736  0.16058710  0.40740729     0.25060
C285        C  0.49226149  0.17900247  0.39776051    -0.22930
C286        C  0.45683945  0.16543960  0.40751649     0.19960
F287        F  0.42506398  0.18297614  0.39826794    -0.12890
F288        F  0.41891229  0.12277144  0.43705861    -0.15250
F289        F  0.05939252  0.17375610  0.39857668    -0.15250
F290        F  0.05414786  0.11271905  0.43721601    -0.12890
C291        C  0.17418262  0.00990168  0.57013655     0.25120
C292        C  0.17547589  0.49451437  0.60304041    -0.22990
C293        C  0.14277976  0.47665124  0.61570741     0.20030
C294        C  0.10998067  0.47478970  0.59610790     0.25060
C295        C  0.11016784  0.48814977  0.56271331    -0.22930
C296        C  0.14251418  0.00551718  0.54992718     0.19960
F297        F  0.14301365  0.01961913  0.51802867    -0.12890
F298        F  0.20303279  0.03039015  0.55759201    -0.15250
F299        F  0.07827920  0.45956158  0.60956625    -0.15250
F300        F  0.14257401  0.46015534  0.64658864    -0.12890
C301        C  0.35225035  0.03156071  0.55844148     0.25120
C302        C  0.38430724  0.51238634  0.56873230    -0.22990
C303        C  0.38197593  0.49125936  0.59866795     0.20030
C304        C  0.34811144  0.48817897  0.61692874     0.25060
C305        C  0.31590352  0.50660479  0.60613861    -0.22930
C306        C  0.31852747  0.02882388  0.57702830     0.19960
F307        F  0.28833566  0.04799239  0.56646241    -0.12890
F308        F  0.35302360  0.05221168  0.52982591    -0.15250
F309        F  0.34647803  0.46578638  0.64433288    -0.15250
F310        F  0.41213071  0.47246201  0.60988116    -0.12890
C311        C  0.17464853  0.03961505  0.41913956     0.25120
C312        C  0.18050988  0.51314531  0.39405309    -0.22990
C313        C  0.15134064  0.48868093  0.38678064     0.20030
C314        C  0.11734061  0.48984343  0.40485740     0.25060
C315        C  0.11168735  0.51553080  0.43088029    -0.22930
C316        C  0.14045332  0.04095750  0.43726795     0.19960
F317        F  0.13573629  0.06687558  0.46128984    -0.12890
F318        F  0.20205443  0.06418606  0.42607725    -0.15250
F319        F  0.09070981  0.46452152  0.39778459    -0.15250
F320        F  0.15644847  0.46231196  0.36324049    -0.12890
C321        C  0.34534794  0.02640178  0.39856864     0.25120
C322        C  0.32010740  0.49727188  0.39648851    -0.22990
C323        C  0.32827755  0.46482012  0.41325048     0.20030
C324        C  0.36105257  0.46176693  0.43253861     0.25060
C325        C  0.38652301  0.49098300  0.43483656    -0.22930
C326        C  0.37837335  0.02327754  0.41737103     0.19960
F327        F  0.40129005  0.05257821  0.41992513    -0.12890
F328        F  0.33730069  0.05832229  0.38329608    -0.15250
F329        F  0.36761101  0.43039230  0.44926966    -0.15250
F330        F  0.30433097  0.43619386  0.41107618    -0.12890
O331        O  0.41680742  0.97018863  0.48509972    -0.78610
O332        O  0.07611708  0.52825478  0.48181223    -0.78640
O333        O  0.45282408  0.57893645  0.47793510    -0.78640
O334        O  0.00208647  0.93667958  0.44644534    -0.78590
O335        O  0.01112855  0.56283454  0.46595137    -0.78710
O336        O  0.46420091  0.91243565  0.48483000    -0.78630
O337        O  0.05123694  0.99207212  0.44552267    -0.78610
O338        O  0.44710619  0.51027630  0.45297223    -0.78650
C339        C  0.41910973  0.98943933  0.45809091     1.11080
C340        C  0.07768637  0.51304193  0.45312568     1.10960
C341        C  0.48320017  0.58465625  0.46160730     1.11100
C342        C  0.98061176  0.91137351  0.45589785     1.10980
O343        O  0.49273370  0.93385143  0.55048938    -0.78610
O344        O  0.04625305  0.57625587  0.52492720    -0.78690
O345        O  0.42079015  0.52820326  0.51891824    -0.78630
O346        O  0.07893835  0.96923434  0.51279354    -0.78610
O347        O  0.04907172  0.50646272  0.54760723    -0.78660
O348        O  0.44435951  0.98939644  0.55342334    -0.78620
O349        O  0.03046066  0.91179384  0.51102943    -0.78580
O350        O  0.48720622  0.56186441  0.53659945    -0.78650
Co351      Co  0.45679285  0.95376417  0.51807397     1.51530
Co352      Co  0.02757035  0.53211239  0.50839531     1.51690
Co353      Co  0.46961708  0.53334155  0.49301788     1.51570
Co354      Co  0.03840907  0.95469358  0.47943619     1.51470
O355        O  0.49790583  0.98690687  0.49954243    -1.40550
C356        C  0.51469432  0.90959570  0.54020983     1.11000
C357        C  0.51608735  0.58294118  0.54093695     1.11090
C358        C  0.41848334  0.01103881  0.54666590     1.11030
C359        C  0.07677718  0.48624718  0.54098757     1.11010
C360        C  0.49460048  0.71359980  0.37928178     0.04650
C361        C  0.49125423  0.74595702  0.39739906    -0.11500
C362        C  0.48887643  0.77888591  0.38003932     0.02150
C363        C  0.48983045  0.77944290  0.34439067    -0.10020
C364        C  0.49391242  0.74723392  0.32584193     0.04650
C365        C  0.49646435  0.71429554  0.34361738    -0.09440
H366        H  0.48973383  0.74544229  0.42495865     0.10240
H367        H  0.48717207  0.80499797  0.33117328     0.07770
H368        H  0.49931541  0.68915625  0.32981647     0.07620
C369        C  0.28500444  0.00107449  0.37717042     0.04650
C370        C  0.25062099  0.00614784  0.39433460    -0.11500
C371        C  0.21717370  0.01003114  0.37597697     0.02150
C372        C  0.21849468  0.00884378  0.34025098    -0.10020
C373        C  0.25272155  0.00343099  0.32281486     0.04650
C374        C  0.28597130  0.99975520  0.34153470    -0.09440
H375        H  0.24987668  0.00656140  0.42190376     0.10240
H376        H  0.19278613  0.01227123  0.32599768     0.07770
H377        H  0.31257209  0.99525069  0.32845725     0.07620
C378        C  0.27953749  0.00268592  0.62490651     0.04650
C379        C  0.24620962  0.99633787  0.60701535    -0.11500
C380        C  0.21079069  0.99728001  0.62344675     0.02150
C381        C  0.20969929  0.00163012  0.65904817    -0.10020
C382        C  0.24313693  0.00406075  0.67785296     0.04650
C383        C  0.27786047  0.00568046  0.66045297    -0.09440
H384        H  0.24816139  0.99082580  0.58003554     0.10240
H385        H  0.18296339  0.00345458  0.67239881     0.07770
H386        H  0.30364807  0.00899387  0.67462028     0.07620
C387        C  0.50713534  0.71325955  0.62158135     0.04650
C388        C  0.50577106  0.71429248  0.65730829    -0.11500
C389        C  0.50603960  0.74756907  0.67458111     0.02150
C390        C  0.50779069  0.77985637  0.65567130    -0.10020
C391        C  0.50884574  0.77905320  0.62001111     0.04650
C392        C  0.50798984  0.74578995  0.60322020    -0.09440
H393        H  0.50584677  0.68927066  0.67165648     0.10240
H394        H  0.50771740  0.80564275  0.66865141     0.07770
H395        H  0.50879152  0.74523539  0.57564906     0.07620
C396        C  0.25824058  0.96440643  0.12169557     0.04650
C397        C  0.25608855  0.96469329  0.15745065    -0.11500
C398        C  0.25578735  0.99760858  0.17532208     0.02150
C399        C  0.25718513  0.53019824  0.15694136    -0.10020
C400        C  0.25992059  0.53019163  0.12134825     0.04650
C401        C  0.26001536  0.99732344  0.10390166    -0.09440
H402        H  0.25604478  0.93937615  0.17132563     0.10240
H403        H  0.25658491  0.55572342  0.17035949     0.07770
H404        H  0.26133466  0.99739847  0.07633766     0.07620
O405        O  0.29529943  0.82866798  0.02293501    -0.78610
O406        O  0.24408883  0.68832402  0.05261161    -0.78640
O407        O  0.16998553  0.77927180  0.01828622    -0.78640
O408        O  0.32852428  0.72078722  0.01447741    -0.78590
O409        O  0.19445072  0.74243484  0.05407195    -0.78710
O410        O  0.29873642  0.75972368  0.04742154    -0.78630
O411        O  0.28016077  0.66341104  0.01390385    -0.78610
O412        O  0.23630947  0.81415102  0.03493700    -0.78650
C413        C  0.26521165  0.83530347  0.03908317     1.11080
C414        C  0.26469674  0.66268022  0.04332300     1.10960
C415        C  0.16797836  0.76310684  0.04655444     1.11100
C416        C  0.32623316  0.73872410  0.04217156     1.10980
O417        O  0.32596235  0.77936090  0.98187677    -0.78610
O418        O  0.16696687  0.71995332  0.98675284    -0.78690
O419        O  0.20130748  0.82848148  0.97589931    -0.78630
O420        O  0.25151679  0.68750740  0.94882620    -0.78610
O421        O  0.21498891  0.66300411  0.98787349    -0.78660
O422        O  0.26006326  0.81331897  0.96436468    -0.78620
O423        O  0.30199488  0.74181958  0.94630869    -0.78580
O424        O  0.19642581  0.75894012  0.95300440    -0.78650
Co425      Co  0.27704822  0.78394486  0.00760371     1.51530
Co426      Co  0.20734112  0.70559797  0.01997434     1.51690
Co427      Co  0.21880673  0.78389963  0.99224512     1.51570
Co428      Co  0.28830092  0.70560214  0.98122151     1.51470
O429        O  0.24778951  0.73834882  0.00016245    -1.40550
C430        C  0.32807469  0.76339080  0.95361349     1.11000
C431        C  0.16894287  0.73761888  0.95880507     1.11090
C432        C  0.23156196  0.83439848  0.95948234     1.11030
C433        C  0.23036603  0.66200170  0.95839987     1.11010
C434        C  0.02842647  0.75693901  0.12405211     0.04650
C435        C  0.02791554  0.75609307  0.15977168    -0.11500
C436        C  0.49384624  0.75260355  0.17806564     0.02150
C437        C  0.45996148  0.74979187  0.16000090    -0.10020
C438        C  0.46010434  0.74962399  0.12426207     0.04650
C439        C  0.49441622  0.75351905  0.10646369    -0.09440
H440        H  0.05427414  0.75783880  0.17333277     0.10240
H441        H  0.43340401  0.74733800  0.17370612     0.07770
H442        H  0.49466686  0.75348931  0.07889281     0.07620
C443        C  0.23938369  0.96440945  0.87862342     0.04650
C444        C  0.24282102  0.96555761  0.84306654    -0.11500
C445        C  0.24025916  0.99858646  0.82552180     0.02150
C446        C  0.23518653  0.53049273  0.84424065    -0.10020
C447        C  0.23288476  0.52975719  0.87994593     0.04650
C448        C  0.23452246  0.99649395  0.89698192    -0.09440
H449        H  0.24679253  0.94064398  0.82912659     0.10240
H450        H  0.23246653  0.55603371  0.83101411     0.07770
H451        H  0.23241214  0.99552277  0.92449664     0.07620
C452        C  0.03507507  0.74720690  0.87624643     0.04650
C453        C  0.03556086  0.74647554  0.84051987    -0.11500
C454        C  0.50257458  0.75257608  0.82205092     0.02150
C455        C  0.46878743  0.75937447  0.83970971    -0.10020
C456        C  0.46738950  0.75905748  0.87547772     0.04650
C457        C  0.50079029  0.75317512  0.89353805    -0.09440
H458        H  0.06160168  0.74058136  0.82705076     0.10240
H459        H  0.44348703  0.76497126  0.82550359     0.07770
H460        H  0.50010725  0.75301005  0.92108539     0.07620
C461        C  0.20255104  0.56938269  0.92445371     0.25120
C462        C  0.23046818  0.56401155  0.89927511    -0.22990
C463        C  0.25697899  0.59150288  0.89280993     0.20030
C464        C  0.25591380  0.62364274  0.91113750     0.25060
C465        C  0.22831249  0.62915527  0.93678956    -0.22930
C466        C  0.20148249  0.60166626  0.94308826     0.19960
F467        F  0.17432754  0.60589929  0.96732004    -0.12890
F468        F  0.17614483  0.54347474  0.93082062    -0.15250
F469        F  0.28327182  0.64862613  0.90461086    -0.15250
F470        F  0.28515536  0.58662949  0.86962217    -0.12890
C471        C  0.26894731  0.87882114  0.92371964     0.25120
C472        C  0.23382653  0.86524867  0.93531890    -0.22990
C473        C  0.20075124  0.88358714  0.92600367     0.20030
C474        C  0.20287799  0.91544120  0.90702255     0.25060
C475        C  0.23786683  0.92947579  0.89660667    -0.22930
C476        C  0.27087507  0.91072438  0.90445074     0.19960
F477        F  0.30499715  0.92402282  0.89448405    -0.12890
F478        F  0.30151868  0.86221109  0.93219380    -0.15250
F479        F  0.17067382  0.93306021  0.89920349    -0.15250
F480        F  0.16618341  0.87114922  0.93571216    -0.12890
C481        C  0.36095891  0.76448551  0.09232919     0.25120
C482        C  0.35829829  0.73842520  0.06625182    -0.22990
C483        C  0.38866686  0.71458494  0.06118323     0.20030
C484        C  0.42138725  0.71789818  0.08044432     0.25060
C485        C  0.42450159  0.74486902  0.10536608    -0.22930
C486        C  0.39373338  0.76763949  0.11160172     0.19960
F487        F  0.39608518  0.79420071  0.13526684    -0.12890
F488        F  0.33260436  0.78812259  0.09834954    -0.15250
F489        F  0.45020759  0.69471576  0.07463479    -0.15250
F490        F  0.38721496  0.68841294  0.03707446    -0.12890
C491        C  0.12859987  0.73910053  0.09506307     0.25120
C492        C  0.13355044  0.76428187  0.06831841    -0.22990
C493        C  0.10379961  0.78788486  0.06079008     0.20030
C494        C  0.06975265  0.78580540  0.07908945     0.25060
C495        C  0.06472196  0.76006402  0.10518164    -0.22930
C496        C  0.09455335  0.73690599  0.11304744     0.19960
F497        F  0.09021932  0.71092061  0.13726009    -0.12890
F498        F  0.15610776  0.71536435  0.10311965    -0.15250
F499        F  0.04172165  0.80909897  0.07139348    -0.15250
F500        F  0.10735790  0.81270785  0.03544609    -0.12890
C501        C  0.42746814  0.78555173  0.92263623     0.25120
C502        C  0.43076413  0.76311136  0.89387189    -0.22990
C503        C  0.39899151  0.74328274  0.88341716     0.20030
C504        C  0.36509192  0.74507031  0.90168143     0.25060
C505        C  0.36217659  0.76621070  0.93140826    -0.22930
C506        C  0.39363179  0.78698213  0.94128415     0.19960
F507        F  0.39215345  0.80797087  0.96955296    -0.12890
F508        F  0.45708494  0.80606128  0.93287314    -0.15250
F509        F  0.33558685  0.72478373  0.89079273    -0.15250
F510        F  0.40117784  0.72049915  0.85644318    -0.12890
C511        C  0.10444949  0.71510966  0.94254377     0.25120
C512        C  0.13656122  0.73653804  0.93500297    -0.22990
C513        C  0.13558597  0.75964333  0.90640440     0.20030
C514        C  0.10290497  0.76250291  0.88702043     0.25060
C515        C  0.07047937  0.74220838  0.89549961    -0.22930
C516        C  0.07186386  0.71797262  0.92304025     0.19960
F517        F  0.04152563  0.69702489  0.93122239    -0.12890
F518        F  0.10397275  0.69193349  0.96938700    -0.15250
F519        F  0.10241872  0.78657070  0.86089701    -0.15250
F520        F  0.16570649  0.78067246  0.89776148    -0.12890
C521        C  0.23397257  0.59035805  0.10620302     0.25120
C522        C  0.26240778  0.56462665  0.10232029    -0.22990
C523        C  0.29278108  0.57177958  0.07992009     0.20030
C524        C  0.29441765  0.60414197  0.06135000     0.25060
C525        C  0.26568385  0.62985370  0.06496188    -0.22930
C526        C  0.23550495  0.62257406  0.08779658     0.19960
F527        F  0.20626883  0.64579657  0.09121298    -0.12890
F528        F  0.20375914  0.58361311  0.12683050    -0.15250
F529        F  0.32406259  0.61030953  0.03994475    -0.15250
F530        F  0.32099903  0.54749828  0.07626504    -0.12890
C531        C  0.23527968  0.87102993  0.08693087     0.25120
C532        C  0.26390643  0.86698685  0.06211451    -0.22990
C533        C  0.29116514  0.89464150  0.05826871     0.20030
C534        C  0.28961231  0.92559467  0.07826012     0.25060
C535        C  0.26071039  0.93004152  0.10252575    -0.22930
C536        C  0.23379837  0.90228520  0.10707051     0.19960
F537        F  0.20533308  0.90599021  0.13013518    -0.12890
F538        F  0.20864156  0.84494875  0.09162396    -0.15250
F539        F  0.31655905  0.95145001  0.07377186    -0.15250
F540        F  0.31890311  0.89249778  0.03427976    -0.12890
C541        C  0.47789534  0.72891170  0.73092731     0.25120
C542        C  0.50519456  0.74869822  0.71235898    -0.22990
C543        C  0.03156724  0.76980737  0.73013122     0.20030
C544        C  0.03057579  0.77121614  0.76570230     0.25060
C545        C  0.50333247  0.75139119  0.78427859    -0.22930
C546        C  0.47701503  0.73018754  0.76652802     0.19960
F547        F  0.45084457  0.71011078  0.78368693    -0.12890
F548        F  0.45157650  0.70883973  0.71456931    -0.15250
F549        F  0.05589730  0.79250363  0.78199141    -0.15250
F550        F  0.05881118  0.78861271  0.71306210    -0.12890
C551        C  0.26359758  0.52792302  0.73482023     0.25120
C552        C  0.24191359  0.00348631  0.71568950    -0.22990
C553        C  0.22013279  0.97718837  0.73296861     0.20030
C554        C  0.21966429  0.97559098  0.76851823     0.25060
C555        C  0.24151367  0.99983471  0.78768181    -0.22930
C556        C  0.26367521  0.52589970  0.77040288     0.19960
F557        F  0.28598654  0.54909203  0.78792893    -0.12890
F558        F  0.28435896  0.55415308  0.71912491    -0.15250
F559        F  0.19714220  0.95070437  0.78418633    -0.15250
F560        F  0.19987366  0.95235401  0.71539918    -0.12890
C561        C  0.22856944  0.97872760  0.26757646     0.25120
C562        C  0.25369029  0.00147464  0.28508443    -0.22990
C563        C  0.27977503  0.52241108  0.26629223     0.20030
C564        C  0.28077820  0.52067235  0.23076855     0.25060
C565        C  0.25535053  0.99830963  0.21315492    -0.22930
C566        C  0.22929583  0.97725870  0.23195848     0.19960
F567        F  0.20391276  0.95588161  0.21585479    -0.12890
F568        F  0.20363274  0.95749030  0.28498773    -0.15250
F569        F  0.30707472  0.54057795  0.21359376    -0.15250
F570        F  0.30383250  0.54524042  0.28230788    -0.12890
C571        C  0.01696482  0.77351238  0.27029263     0.25120
C572        C  0.49446780  0.74809680  0.28799913    -0.22990
C573        C  0.47187354  0.72408699  0.26927424     0.20030
C574        C  0.47193992  0.72531407  0.23368478     0.25060
C575        C  0.49388179  0.75120135  0.21595416    -0.22930
C576        C  0.01630293  0.77537550  0.23474677     0.19960
F577        F  0.03710542  0.80140569  0.21879767    -0.12890
F578        F  0.04008779  0.79633878  0.28738417    -0.15250
F579        F  0.45100162  0.70062281  0.21659773    -0.15250
F580        F  0.44896394  0.69986919  0.28541802    -0.12890
C581        C  0.04336408  0.86851696  0.58354802     0.25120
C582        C  0.51544996  0.87562330  0.55950543    -0.22990
C583        C  0.48549499  0.85106908  0.55557626     0.20030
C584        C  0.48335763  0.81981359  0.57537250     0.25060
C585        C  0.51088590  0.81278840  0.59985596    -0.22930
C586        C  0.04093863  0.83737734  0.60387406     0.19960
F587        F  0.06822961  0.83084106  0.62698574    -0.12890
F588        F  0.07276560  0.89164018  0.58737639    -0.15250
F589        F  0.45387897  0.79673553  0.57116098    -0.15250
F590        F  0.45791246  0.85760805  0.53276289    -0.12890
C591        C  0.03872705  0.67439835  0.57832872     0.25120
C592        C  0.51013389  0.67859021  0.60295915    -0.22990
C593        C  0.48412218  0.65023412  0.60841494     0.20030
C594        C  0.48615802  0.61861912  0.58881069     0.25060
C595        C  0.51446947  0.61482605  0.56366382    -0.22930
C596        C  0.04080825  0.64310482  0.55887065     0.19960
F597        F  0.06801039  0.64126174  0.53435676    -0.12890
F598        F  0.06483253  0.70085313  0.57292157    -0.15250
F599        F  0.46035501  0.59194583  0.59431508    -0.15250
F600        F  0.45597139  0.65366965  0.63183148    -0.12890
C601        C  0.01825217  0.82729638  0.41461208     0.25120
C602        C  0.48606702  0.81284408  0.39928652    -0.22990
C603        C  0.45150695  0.83087673  0.40252442     0.20030
C604        C  0.44913730  0.86296267  0.42130576     0.25060
C605        C  0.48149629  0.87761415  0.43628378    -0.22930
C606        C  0.01608063  0.85961866  0.43266411     0.19940
F607        F  0.04774881  0.87314382  0.44713678    -0.12890
F608        F  0.05185401  0.81018681  0.41181208    -0.15250
F609        F  0.41563650  0.88005710  0.42418257    -0.15250
F610        F  0.42014726  0.81721319  0.38769568    -0.12890
C611        C  0.45382568  0.63429351  0.42745840     0.25120
C612        C  0.48638519  0.61580668  0.43784177    -0.22990
C613        C  0.02200147  0.62911239  0.42720958     0.20030
C614        C  0.02484807  0.66058712  0.40740659     0.25060
C615        C  0.49226207  0.67900263  0.39776048    -0.22930
C616        C  0.45684020  0.66543985  0.40751705     0.19960
F617        F  0.42506457  0.68297650  0.39826911    -0.12890
F618        F  0.41891351  0.62277172  0.43705966    -0.15250
F619        F  0.05939308  0.67375602  0.39857536    -0.15250
F620        F  0.05414906  0.61271890  0.43721468    -0.12890
C621        C  0.17418453  0.50990198  0.57013652     0.25120
C622        C  0.17547396  0.99451427  0.60304051    -0.22990
C623        C  0.14277778  0.97665128  0.61570761     0.20030
C624        C  0.10997868  0.97478969  0.59610812     0.25060
C625        C  0.11016590  0.98814951  0.56271344    -0.22930
C626        C  0.14251608  0.50551759  0.54992715     0.19960
F627        F  0.14301551  0.51961974  0.51802872    -0.12890
F628        F  0.20303469  0.53039052  0.55759209    -0.15250
F629        F  0.07827717  0.95956177  0.60956658    -0.15250
F630        F  0.14257199  0.96015558  0.64658894    -0.12890
C631        C  0.35225230  0.53156079  0.55844155     0.25120
C632        C  0.38430531  0.01238634  0.56873229    -0.22990
C633        C  0.38197402  0.99125940  0.59866796     0.20030
C634        C  0.34810952  0.98817897  0.61692873     0.25060
C635        C  0.31590158  0.00660472  0.60613856    -0.22930
C636        C  0.31852944  0.52882399  0.57702839     0.19960
F637        F  0.28833767  0.54799258  0.56646255    -0.12890
F638        F  0.35302557  0.55221181  0.52982601    -0.15250
F639        F  0.34647613  0.96578642  0.64433289    -0.15250
F640        F  0.41212882  0.97246213  0.60988123    -0.12890
C641        C  0.17465044  0.53961532  0.41913941     0.25120
C642        C  0.18050795  0.01314502  0.39405326    -0.22990
C643        C  0.15133869  0.98868064  0.38678084     0.20030
C644        C  0.11733867  0.98984318  0.40485760     0.25060
C645        C  0.11168544  0.01553058  0.43088046    -0.22930
C646        C  0.14045521  0.54095773  0.43726779     0.19960
F647        F  0.13573816  0.56687579  0.46128970    -0.12890
F648        F  0.20205631  0.56418634  0.42607712    -0.15250
F649        F  0.09070786  0.96452127  0.39778485    -0.15250
F650        F  0.15644651  0.96231164  0.36324072    -0.12890
C651        C  0.34534992  0.52640198  0.39856853     0.25120
C652        C  0.32010546  0.99727163  0.39648863    -0.22990
C653        C  0.32827570  0.96481989  0.41325057     0.20030
C654        C  0.36105075  0.96176674  0.43253866     0.25060
C655        C  0.38652112  0.99098286  0.43483662    -0.22930
C656        C  0.37837531  0.52327768  0.41737094     0.19960
F657        F  0.40129207  0.55257832  0.41992504    -0.12890
F658        F  0.33730275  0.55832249  0.38329596    -0.15250
F659        F  0.36760931  0.93039210  0.44926964    -0.15250
F660        F  0.30432918  0.93619358  0.41107627    -0.12890
O661        O  0.91680934  0.47018866  0.48509962    -0.78610
O662        O  0.57611524  0.02825453  0.48181244    -0.78640
O663        O  0.95282234  0.07893645  0.47793496    -0.78640
O664        O  0.50208859  0.43667948  0.44644521    -0.78590
O665        O  0.51112689  0.06283440  0.46595157    -0.78710
O666        O  0.96420289  0.41243575  0.48482989    -0.78630
O667        O  0.55123894  0.49207216  0.44552254    -0.78610
O668        O  0.94710430  0.01027621  0.45297229    -0.78650
C669        C  0.91911163  0.48943940  0.45809083     1.11080
C670        C  0.57768446  0.01304177  0.45312585     1.10960
C671        C  0.98319858  0.08465617  0.46160734     1.11100
C672        C  0.48061374  0.41137353  0.45589774     1.10980
O673        O  0.99273571  0.43385157  0.55048927    -0.78610
O674        O  0.54625138  0.07625559  0.52492740    -0.78690
O675        O  0.92078829  0.02820331  0.51891828    -0.78630
O676        O  0.57894033  0.46923452  0.51279343    -0.78610
O677        O  0.54906977  0.00646245  0.54760742    -0.78660
O678        O  0.94436143  0.48939645  0.55342328    -0.78620
O679        O  0.53046267  0.41179390  0.51102937    -0.78580
O680        O  0.98720438  0.06186454  0.53659942    -0.78650
Co681      Co  0.95679482  0.45376424  0.51807386     1.51530
Co682      Co  0.52756852  0.03211221  0.50839552     1.51690
Co683      Co  0.96961521  0.03334154  0.49301790     1.51570
Co684      Co  0.53841109  0.45469363  0.47943610     1.51470
O685        O  0.99790778  0.48690693  0.49954229    -1.40550
C686        C  0.01469625  0.40959577  0.54020973     1.11000
C687        C  0.01608563  0.08294116  0.54093698     1.11090
C688        C  0.91848523  0.51103878  0.54666587     1.11030
C689        C  0.57677523  0.98624691  0.54098772     1.11010
C690        C  0.99460019  0.21359961  0.37928180     0.04650
C691        C  0.99125445  0.24595687  0.39739907    -0.11500
C692        C  0.98887699  0.27888579  0.38003932     0.02150
C693        C  0.98983087  0.27944275  0.34439067    -0.10020
C694        C  0.99391241  0.24723372  0.32584192     0.04650
C695        C  0.99646395  0.21429531  0.34361739    -0.09440
H696        H  0.98973415  0.24544217  0.42495866     0.10240
H697        H  0.98717275  0.30499784  0.33117328     0.07770
H698        H  0.99931469  0.18915598  0.32981649     0.07620
C699        C  0.78500639  0.50107477  0.37717027     0.04650
C700        C  0.75062294  0.50614816  0.39433444    -0.11500
C701        C  0.71717565  0.51003144  0.37597681     0.02150
C702        C  0.71849664  0.50884402  0.34025082    -0.10020
C703        C  0.75272350  0.50343116  0.32281471     0.04650
C704        C  0.78597325  0.49975541  0.34153455    -0.09440
H705        H  0.74987863  0.50656176  0.42190360     0.10240
H706        H  0.69278808  0.51227146  0.32599752     0.07770
H707        H  0.81257403  0.49525084  0.32845711     0.07620
C708        C  0.77953940  0.50268596  0.62490653     0.04650
C709        C  0.74621156  0.49633800  0.60701531    -0.11500
C710        C  0.71079261  0.49728006  0.62344668     0.02150
C711        C  0.70970115  0.50163005  0.65904812    -0.10020
C712        C  0.74313876  0.50406062  0.67785296     0.04650
C713        C  0.77786234  0.50568038  0.66045301    -0.09440
H714        H  0.74816334  0.49082604  0.58003549     0.10240
H715        H  0.68296523  0.50345447  0.67239871     0.07770
H716        H  0.80364991  0.50899373  0.67462037     0.07620
C717        C  0.00713480  0.21325969  0.62158129     0.04650
C718        C  0.00577057  0.21429263  0.65730823    -0.11500
C719        C  0.00603952  0.24756921  0.67458106     0.02150
C720        C  0.00779102  0.27985651  0.65567125    -0.10020
C721        C  0.00884608  0.27905333  0.62001106     0.04650
C722        C  0.00798973  0.24579009  0.60322015    -0.09440
H723        H  0.00584598  0.18927079  0.67165641     0.10240
H724        H  0.00771804  0.30564288  0.66865136     0.07770
H725        H  0.00879139  0.24523553  0.57564902     0.07620
C726        C  0.75824126  0.46440650  0.12169535     0.04650
C727        C  0.75608961  0.46469330  0.15745045    -0.11500
C728        C  0.75578862  0.49760856  0.17532194     0.02150
C729        C  0.75718400  0.03019822  0.15694146    -0.10020
C730        C  0.75991984  0.03019156  0.12134837     0.04650
C731        C  0.76001587  0.49732354  0.10390149    -0.09440
H732        H  0.75604596  0.43937614  0.17132539     0.10240
H733        H  0.75658363  0.05572342  0.17035955     0.07770
H734        H  0.76133487  0.49739863  0.07633748     0.07620
O735        O  0.79529953  0.32866787  0.02293492    -0.78610
O736        O  0.74408881  0.18832403  0.05261169    -0.78640
O737        O  0.66998556  0.27927181  0.01828620    -0.78640
O738        O  0.82852426  0.22078708  0.01447748    -0.78590
O739        O  0.69445077  0.24243489  0.05407197    -0.78710
O740        O  0.79873642  0.25972361  0.04742155    -0.78630
O741        O  0.78016069  0.16341093  0.01390395    -0.78610
O742        O  0.73630954  0.31415103  0.03493692    -0.78650
C743        C  0.76521175  0.33530345  0.03908304     1.11080
C744        C  0.76469664  0.16268016  0.04332310     1.10960
C745        C  0.66797840  0.26310686  0.04655444     1.11100
C746        C  0.82623315  0.23872400  0.04217160     1.10980
O747        O  0.82596238  0.27936074  0.98187678    -0.78610
O748        O  0.66696686  0.21995329  0.98675289    -0.78690
O749        O  0.70130755  0.32848141  0.97589923    -0.78630
O750        O  0.75151676  0.18750727  0.94882628    -0.78610
O751        O  0.71498885  0.16300407  0.98787359    -0.78660
O752        O  0.76006333  0.31331886  0.96436463    -0.78620
O753        O  0.80199494  0.24181938  0.94630872    -0.78580
O754        O  0.69642582  0.25894002  0.95300440    -0.78650
Co755      Co  0.77704825  0.28394476  0.00760369     1.51530
Co756      Co  0.70734110  0.20559796  0.01997440     1.51690
Co757      Co  0.71880676  0.28389957  0.99224509     1.51570
Co758      Co  0.78830090  0.20560200  0.98122158     1.51470
O759        O  0.74778951  0.23834875  0.00016247    -1.40550
C760        C  0.82807474  0.26339062  0.95361351     1.11000
C761        C  0.66894288  0.23761879  0.95880509     1.11090
C762        C  0.73156205  0.33439840  0.95948228     1.11030
C763        C  0.73036596  0.16200162  0.95839998     1.11010
C764        C  0.52842648  0.25693893  0.12405208     0.04650
C765        C  0.52791556  0.25609294  0.15977165    -0.11500
C766        C  0.99384626  0.25260345  0.17806562     0.02150
C767        C  0.95996150  0.24979184  0.16000088    -0.10020
C768        C  0.96010435  0.24962397  0.12426206     0.04650
C769        C  0.99441623  0.25351902  0.10646367    -0.09440
H770        H  0.55427418  0.25783861  0.17333272     0.10240
H771        H  0.93340402  0.24733800  0.17370610     0.07770
H772        H  0.99466686  0.25348930  0.07889279     0.07620
C773        C  0.73938409  0.46440947  0.87862347     0.04650
C774        C  0.74282174  0.46555759  0.84306662    -0.11500
C775        C  0.74026002  0.49858641  0.82552181     0.02150
C776        C  0.73518583  0.03049275  0.84424071    -0.10020
C777        C  0.73288435  0.02975715  0.87994600     0.04650
C778        C  0.73452270  0.49649399  0.89698190    -0.09440
H779        H  0.74679339  0.44064394  0.82912673     0.10240
H780        H  0.73246572  0.05603375  0.83101424     0.07770
H781        H  0.73241216  0.49552285  0.92449661     0.07620
C782        C  0.53507510  0.24720673  0.87624641     0.04650
C783        C  0.53556088  0.24647542  0.84051985    -0.11500
C784        C  0.00257460  0.25257606  0.82205090     0.02150
C785        C  0.96878746  0.25937446  0.83970971    -0.10020
C786        C  0.96738954  0.25905738  0.87547773     0.04650
C787        C  0.00079033  0.25317496  0.89353804    -0.09440
H788        H  0.56160169  0.24058123  0.82705073     0.10240
H789        H  0.94348707  0.26497132  0.82550362     0.07770
H790        H  0.00010730  0.25300983  0.92108538     0.07620
C791        C  0.70255082  0.06938263  0.92445388     0.25120
C792        C  0.73046790  0.06401148  0.89927523    -0.22990
C793        C  0.75697873  0.09150277  0.89281001     0.20030
C794        C  0.75591362  0.12364263  0.91113758     0.25060
C795        C  0.72831236  0.12915518  0.93678968    -0.22930
C796        C  0.70148235  0.10166620  0.94308843     0.19960
F797        F  0.67432745  0.10589925  0.96732025    -0.12890
F798        F  0.67614461  0.04347469  0.93082084    -0.15250
F799        F  0.78327166  0.14862599  0.90461090    -0.15250
F800        F  0.78515503  0.08662936  0.86962218    -0.12890
C801        C  0.76894748  0.37882101  0.92371959     0.25120
C802        C  0.73382668  0.36524863  0.93531889    -0.22990
C803        C  0.70075144  0.38358724  0.92600375     0.20030
C804        C  0.70287827  0.41544133  0.90702269     0.25060
C805        C  0.73786714  0.42947582  0.89660675    -0.22930
C806        C  0.77087532  0.41072427  0.90445073     0.19960
F807        F  0.80499743  0.42402261  0.89448399    -0.12890
F808        F  0.80151881  0.36221084  0.93219366    -0.15250
F809        F  0.67067414  0.43306046  0.89920370    -0.15250
F810        F  0.66618358  0.37114942  0.93571228    -0.12890
C811        C  0.86095892  0.26448548  0.09232919     0.25120
C812        C  0.85829828  0.23842513  0.06625186    -0.22990
C813        C  0.88866684  0.21458486  0.06118329     0.20030
C814        C  0.92138724  0.21789812  0.08044436     0.25060
C815        C  0.92450160  0.24486900  0.10536607    -0.22930
C816        C  0.89373340  0.26763948  0.11160171     0.19960
F817        F  0.89608522  0.29420073  0.13526679    -0.12890
F818        F  0.83260438  0.28812257  0.09834952    -0.15250
F819        F  0.95020757  0.19471569  0.07463484    -0.15250
F820        F  0.88721492  0.18841282  0.03707456    -0.12890
C821        C  0.62859988  0.23910049  0.09506303     0.25120
C822        C  0.63355046  0.26428187  0.06831838    -0.22990
C823        C  0.60379962  0.28788484  0.06079007     0.20030
C824        C  0.56975265  0.28580535  0.07908943     0.25060
C825        C  0.56472197  0.26006395  0.10518160    -0.22930
C826        C  0.59455336  0.23690592  0.11304738     0.19960
F827        F  0.59021933  0.21092051  0.13726001    -0.12890
F828        F  0.65610779  0.21536432  0.10311960    -0.15250
F829        F  0.54172165  0.30909893  0.07139347    -0.15250
F830        F  0.60735791  0.31270785  0.03544609    -0.12890
C831        C  0.92746821  0.28555153  0.92263630     0.25120
C832        C  0.93076418  0.26311124  0.89387191    -0.22990
C833        C  0.89899154  0.24328267  0.88341714     0.20030
C834        C  0.86509195  0.24507022  0.90168141     0.25060
C835        C  0.86217664  0.26621054  0.93140829    -0.22930
C836        C  0.89363186  0.28698191  0.94128423     0.19960
F837        F  0.89215354  0.30797057  0.96955308    -0.12890
F838        F  0.95708503  0.30606103  0.93287326    -0.15250
F839        F  0.83558686  0.22478370  0.89079266    -0.15250
F840        F  0.90117785  0.22049915  0.85644309    -0.12890
C841        C  0.60444953  0.21510950  0.94254376     0.25120
C842        C  0.63656124  0.23653791  0.93500297    -0.22990
C843        C  0.63558599  0.25964319  0.90640439     0.20030
C844        C  0.60290500  0.26250275  0.88702042     0.25060
C845        C  0.57047941  0.24220820  0.89549958    -0.22930
C846        C  0.57186391  0.21797244  0.92304022     0.19960
F847        F  0.54152569  0.19702469  0.93122235    -0.12890
F848        F  0.60397281  0.19193333  0.96938699    -0.15250
F849        F  0.60241875  0.28657054  0.86089700    -0.15250
F850        F  0.66570650  0.28067235  0.89776149    -0.12890
C851        C  0.73397203  0.09035804  0.10620301     0.25120
C852        C  0.76240719  0.06462656  0.10232038    -0.22990
C853        C  0.79278058  0.07177942  0.07992026     0.20030
C854        C  0.79441731  0.10414181  0.06135017     0.25060
C855        C  0.76568358  0.12985362  0.06496197    -0.22930
C856        C  0.73550457  0.12257405  0.08779657     0.19960
F857        F  0.70626851  0.14579664  0.09121289    -0.12890
F858        F  0.70375850  0.08361319  0.12683038    -0.15250
F859        F  0.82406234  0.11030929  0.03994500    -0.15250
F860        F  0.82099850  0.04749806  0.07626531    -0.12890
C861        C  0.73528011  0.37102995  0.08693088     0.25120
C862        C  0.76390658  0.36698692  0.06211426    -0.22990
C863        C  0.79116513  0.39464167  0.05826812     0.20030
C864        C  0.78961247  0.42559485  0.07825951     0.25060
C865        C  0.76071085  0.43004163  0.10252546    -0.22930
C866        C  0.73379895  0.40228524  0.10707050     0.19960
F867        F  0.70533393  0.40599019  0.13013546    -0.12890
F868        F  0.70864215  0.34494868  0.09162427    -0.15250
F869        F  0.81655907  0.45145025  0.07377095    -0.15250
F870        F  0.81890278  0.39249802  0.03427886    -0.12890
C871        C  0.97789516  0.22891197  0.73092727     0.25120
C872        C  0.00519449  0.24869835  0.71235894    -0.22990
C873        C  0.53156733  0.26980732  0.73013121     0.20030
C874        C  0.53057589  0.27121605  0.76570230     0.25060
C875        C  0.00333247  0.25139122  0.78427856    -0.22930
C876        C  0.97701489  0.23018774  0.76652797     0.19960
F877        F  0.95084434  0.21011108  0.78368687    -0.12890
F878        F  0.95157617  0.20884018  0.71456927    -0.15250
F879        F  0.55589752  0.29250340  0.78199141    -0.15250
F880        F  0.55881139  0.28861251  0.71306212    -0.12890
C881        C  0.76359597  0.02792323  0.73482013     0.25120
C882        C  0.74191531  0.50348611  0.71568949    -0.22990
C883        C  0.72013439  0.47718818  0.73296851     0.20030
C884        C  0.71966563  0.47559083  0.76851813     0.25060
C885        C  0.74151486  0.49983459  0.78768182    -0.22930
C886        C  0.76367387  0.02589986  0.77040277     0.19960
F887        F  0.78598534  0.04909217  0.78792870    -0.12890
F888        F  0.78435723  0.05415332  0.71912472    -0.15250
F889        F  0.69714342  0.45070424  0.78418612    -0.15250
F890        F  0.69987539  0.45235381  0.71539898    -0.12890
C891        C  0.72857126  0.47872759  0.26757643     0.25120
C892        C  0.75369219  0.50147465  0.28508428    -0.22990
C893        C  0.77977315  0.02241112  0.26629249     0.20030
C894        C  0.78077649  0.02067245  0.23076881     0.25060
C895        C  0.75535210  0.49830955  0.21315477    -0.22930
C896        C  0.72929749  0.47725865  0.23195845     0.19960
F897        F  0.70391431  0.45588157  0.21585489    -0.12890
F898        F  0.70363461  0.45749034  0.28498782    -0.15250
F899        F  0.80707307  0.04057809  0.21359416    -0.15250
F900        F  0.80383051  0.04524047  0.28230826    -0.12890
C901        C  0.51696503  0.27351205  0.27029262     0.25120
C902        C  0.99446780  0.24809660  0.28799912    -0.22990
C903        C  0.97187340  0.22408693  0.26927422     0.20030
C904        C  0.97193980  0.22531402  0.23368475     0.25060
C905        C  0.99388182  0.25120119  0.21595414    -0.22930
C906        C  0.51630312  0.27537522  0.23474676     0.19960
F907        F  0.53710574  0.30140532  0.21879769    -0.12890
F908        F  0.54008820  0.29633828  0.28738416    -0.15250
F909        F  0.95100139  0.20062286  0.21659770    -0.15250
F910        F  0.94896362  0.19986926  0.28541797    -0.12890
C911        C  0.54336548  0.36851677  0.58354803     0.25120
C912        C  0.01545158  0.37562331  0.55950527    -0.22990
C913        C  0.98549642  0.35106934  0.55557600     0.20030
C914        C  0.98335863  0.31981391  0.57537229     0.25060
C915        C  0.01088668  0.31278851  0.59985590    -0.22930
C916        C  0.54093963  0.33737720  0.60387410     0.19960
F917        F  0.56823041  0.33084072  0.62698593    -0.12890
F918        F  0.57276716  0.39163978  0.58737656    -0.15250
F919        F  0.95387975  0.29673613  0.57116067    -0.15250
F920        F  0.95791405  0.35760852  0.53276251    -0.12890
C921        C  0.53872608  0.17439821  0.57832862     0.25120
C922        C  0.01013296  0.17859033  0.60295907    -0.22990
C923        C  0.98412098  0.15023447  0.60841488     0.20030
C924        C  0.98615650  0.11861943  0.58881063     0.25060
C925        C  0.01446791  0.11482611  0.56366375    -0.22930
C926        C  0.54080695  0.14310466  0.55887055     0.19960
F927        F  0.56800904  0.14126136  0.53435663    -0.12890
F928        F  0.56483182  0.20085275  0.57292145    -0.15250
F929        F  0.96035327  0.09194635  0.59431505    -0.15250
F930        F  0.95597025  0.15367024  0.63183144    -0.12890
C931        C  0.51825326  0.32729576  0.41461243     0.25120
C932        C  0.98606798  0.31284401  0.39928649    -0.22990
C933        C  0.95150820  0.33087723  0.40252404     0.20030
C934        C  0.94913890  0.36296322  0.42130532     0.25060
C935        C  0.98149796  0.37761419  0.43628365    -0.22930
C936        C  0.51608205  0.35961810  0.43266441     0.19940
F937        F  0.54775026  0.37314278  0.44713741    -0.12890
F938        F  0.55185483  0.31018566  0.41181279    -0.15250
F939        F  0.91563838  0.38005820  0.42418178    -0.15250
F940        F  0.92014845  0.31721418  0.38769502    -0.12890
C941        C  0.95382459  0.13429329  0.42745786     0.25120
C942        C  0.98638393  0.11580660  0.43784184    -0.22990
C943        C  0.52200045  0.12911240  0.42721029     0.20030
C944        C  0.52484739  0.16058710  0.40740730     0.25060
C945        C  0.99226146  0.17900247  0.39776051    -0.22930
C946        C  0.95683943  0.16543959  0.40751647     0.19960
F947        F  0.92506394  0.18297612  0.39826792    -0.12890
F948        F  0.91891227  0.12277139  0.43705856    -0.15250
F949        F  0.55939255  0.17375609  0.39857669    -0.15250
F950        F  0.55414787  0.11271905  0.43721602    -0.12890
C951        C  0.67418262  0.00990166  0.57013654     0.25120
C952        C  0.67547589  0.49451438  0.60304042    -0.22990
C953        C  0.64277976  0.47665124  0.61570742     0.20030
C954        C  0.60998067  0.47478970  0.59610791     0.25060
C955        C  0.61016785  0.48814977  0.56271332    -0.22930
C956        C  0.64251419  0.00551716  0.54992718     0.19960
F957        F  0.64301365  0.01961910  0.51802867    -0.12890
F958        F  0.70303279  0.03039012  0.55759200    -0.15250
F959        F  0.57827921  0.45956157  0.60956626    -0.15250
F960        F  0.64257401  0.46015535  0.64658865    -0.12890
C961        C  0.85225035  0.03156070  0.55844148     0.25120
C962        C  0.88430724  0.51238634  0.56873230    -0.22990
C963        C  0.88197593  0.49125936  0.59866795     0.20030
C964        C  0.84811144  0.48817898  0.61692874     0.25060
C965        C  0.81590353  0.50660480  0.60613862    -0.22930
C966        C  0.81852747  0.02882387  0.57702830     0.19960
F967        F  0.78833566  0.04799238  0.56646240    -0.12890
F968        F  0.85302360  0.05221167  0.52982591    -0.15250
F969        F  0.84647803  0.46578639  0.64433288    -0.15250
F970        F  0.91213071  0.47246201  0.60988116    -0.12890
C971        C  0.67464855  0.03961499  0.41913958     0.25120
C972        C  0.68050989  0.51314530  0.39405309    -0.22990
C973        C  0.65134064  0.48868091  0.38678064     0.20030
C974        C  0.61734061  0.48984341  0.40485740     0.25060
C975        C  0.61168736  0.51553078  0.43088029    -0.22930
C976        C  0.64045333  0.04095746  0.43726796     0.19960
F977        F  0.63573632  0.06687554  0.46128985    -0.12890
F978        F  0.70205446  0.06418599  0.42607727    -0.15250
F979        F  0.59070981  0.46452150  0.39778461    -0.15250
F980        F  0.65644847  0.46231194  0.36324050    -0.12890
C981        C  0.84534804  0.02640167  0.39856850     0.25120
C982        C  0.82010740  0.49727187  0.39648850    -0.22990
C983        C  0.82827754  0.46482013  0.41325050     0.20030
C984        C  0.86105256  0.46176694  0.43253862     0.25060
C985        C  0.88652301  0.49098299  0.43483655    -0.22930
C986        C  0.87837345  0.02327743  0.41737088     0.19960
F987        F  0.90129022  0.05257807  0.41992486    -0.12890
F988        F  0.83730087  0.05832213  0.38329581    -0.15250
F989        F  0.86761098  0.43039232  0.44926969    -0.15250
F990        F  0.80433094  0.43619387  0.41107622    -0.12890
O991        O  0.91680743  0.97018863  0.48509973    -0.78610
O992        O  0.57611709  0.52825477  0.48181224    -0.78640
O993        O  0.95282407  0.57893645  0.47793511    -0.78640
O994        O  0.50208646  0.93667958  0.44644534    -0.78590
O995        O  0.51112856  0.56283453  0.46595137    -0.78710
O996        O  0.96420091  0.91243565  0.48483001    -0.78630
O997        O  0.55123694  0.99207212  0.44552267    -0.78610
O998        O  0.94710619  0.51027631  0.45297223    -0.78650
C999        C  0.91910974  0.98943931  0.45809091     1.11080
C1000       C  0.57768638  0.51304192  0.45312568     1.10960
C1001       C  0.98320015  0.58465626  0.46160730     1.11100
C1002       C  0.48061176  0.91137350  0.45589785     1.10980
O1003       O  0.99273371  0.93385144  0.55048939    -0.78610
O1004       O  0.54625306  0.57625586  0.52492720    -0.78690
O1005       O  0.92079014  0.52820325  0.51891824    -0.78630
O1006       O  0.57893835  0.96923433  0.51279353    -0.78610
O1007       O  0.54907173  0.50646271  0.54760724    -0.78660
O1008       O  0.94435952  0.98939645  0.55342334    -0.78620
O1009       O  0.53046066  0.91179383  0.51102943    -0.78580
O1010       O  0.98720621  0.56186441  0.53659945    -0.78650
Co1011     Co  0.95679286  0.95376418  0.51807398     1.51530
Co1012     Co  0.52757036  0.53211239  0.50839532     1.51690
Co1013     Co  0.96961707  0.53334156  0.49301788     1.51570
Co1014     Co  0.53840907  0.95469357  0.47943618     1.51470
O1015       O  0.99790584  0.98690687  0.49954243    -1.40550
C1016       C  0.01469433  0.90959571  0.54020983     1.11000
C1017       C  0.01608734  0.58294119  0.54093695     1.11090
C1018       C  0.91848334  0.01103881  0.54666590     1.11030
C1019       C  0.57677719  0.48624717  0.54098758     1.11010
C1020       C  0.99460041  0.71359981  0.37928179     0.04650
C1021       C  0.99125414  0.74595703  0.39739906    -0.11500
C1022       C  0.98887634  0.77888593  0.38003931     0.02150
C1023       C  0.98983037  0.77944291  0.34439067    -0.10020
C1024       C  0.99391236  0.74723392  0.32584193     0.04650
C1025       C  0.99646429  0.71429555  0.34361739    -0.09440
H1026       H  0.98973374  0.74544231  0.42495865     0.10240
H1027       H  0.98717201  0.80499798  0.33117327     0.07770
H1028       H  0.99931537  0.68915626  0.32981648     0.07620
C1029       C  0.78500445  0.00107443  0.37717041     0.04650
C1030       C  0.75062100  0.00614776  0.39433460    -0.11500
C1031       C  0.71717371  0.01003108  0.37597697     0.02150
C1032       C  0.71849468  0.00884373  0.34025099    -0.10020
C1033       C  0.75272155  0.00343095  0.32281486     0.04650
C1034       C  0.78597130  0.99975516  0.34153470    -0.09440
H1035       H  0.74987669  0.00656132  0.42190376     0.10240
H1036       H  0.69278613  0.01227120  0.32599769     0.07770
H1037       H  0.81257209  0.99525066  0.32845724     0.07620
C1038       C  0.77953749  0.00268591  0.62490650     0.04650
C1039       C  0.74620963  0.99633786  0.60701534    -0.11500
C1040       C  0.71079069  0.99727999  0.62344675     0.02150
C1041       C  0.70969929  0.00163011  0.65904817    -0.10020
C1042       C  0.74313693  0.00406074  0.67785296     0.04650
C1043       C  0.77786048  0.00568045  0.66045297    -0.09440
H1044       H  0.74816139  0.99082578  0.58003554     0.10240
H1045       H  0.68296339  0.00345457  0.67239880     0.07770
H1046       H  0.80364807  0.00899386  0.67462028     0.07620
C1047       C  0.00713531  0.71325955  0.62158135     0.04650
C1048       C  0.00577104  0.71429249  0.65730828    -0.11500
C1049       C  0.00603958  0.74756908  0.67458111     0.02150
C1050       C  0.00779067  0.77985638  0.65567129    -0.10020
C1051       C  0.00884572  0.77905320  0.62001111     0.04650
C1052       C  0.00798982  0.74578995  0.60322019    -0.09440
H1053       H  0.00584674  0.68927066  0.67165648     0.10240
H1054       H  0.00771738  0.80564276  0.66865141     0.07770
H1055       H  0.00879149  0.74523539  0.57564906     0.07620
C1056       C  0.75824058  0.96440643  0.12169557     0.04650
C1057       C  0.75608855  0.96469329  0.15745065    -0.11500
C1058       C  0.75578735  0.99760857  0.17532208     0.02150
C1059       C  0.75718513  0.53019823  0.15694136    -0.10020
C1060       C  0.75992059  0.53019163  0.12134825     0.04650
C1061       C  0.76001536  0.99732344  0.10390166    -0.09440
H1062       H  0.75604478  0.93937615  0.17132562     0.10240
H1063       H  0.75658491  0.55572341  0.17035949     0.07770
H1064       H  0.76133467  0.99739847  0.07633766     0.07620
O1065       O  0.79529943  0.82866798  0.02293501    -0.78610
O1066       O  0.74408884  0.68832403  0.05261161    -0.78640
O1067       O  0.66998553  0.77927180  0.01828622    -0.78640
O1068       O  0.82852428  0.72078722  0.01447741    -0.78590
O1069       O  0.69445072  0.74243485  0.05407195    -0.78710
O1070       O  0.79873642  0.75972368  0.04742154    -0.78630
O1071       O  0.78016077  0.66341105  0.01390385    -0.78610
O1072       O  0.73630947  0.81415102  0.03493699    -0.78650
C1073       C  0.76521165  0.83530347  0.03908317     1.11080
C1074       C  0.76469675  0.66268023  0.04332301     1.10960
C1075       C  0.66797837  0.76310684  0.04655444     1.11100
C1076       C  0.82623316  0.73872410  0.04217155     1.10980
O1077       O  0.82596235  0.77936091  0.98187677    -0.78610
O1078       O  0.66696687  0.71995332  0.98675284    -0.78690
O1079       O  0.70130748  0.82848148  0.97589931    -0.78630
O1080       O  0.75151679  0.68750740  0.94882620    -0.78610
O1081       O  0.71498891  0.66300412  0.98787349    -0.78660
O1082       O  0.76006326  0.81331897  0.96436468    -0.78620
O1083       O  0.80199488  0.74181958  0.94630869    -0.78580
O1084       O  0.69642581  0.75894012  0.95300440    -0.78650
Co1085     Co  0.77704822  0.78394486  0.00760371     1.51530
Co1086     Co  0.70734112  0.70559797  0.01997434     1.51690
Co1087     Co  0.71880673  0.78389963  0.99224512     1.51570
Co1088     Co  0.78830092  0.70560214  0.98122151     1.51470
O1089       O  0.74778951  0.73834882  0.00016245    -1.40550
C1090       C  0.82807469  0.76339081  0.95361349     1.11000
C1091       C  0.66894287  0.73761887  0.95880507     1.11090
C1092       C  0.73156196  0.83439848  0.95948234     1.11030
C1093       C  0.73036602  0.66200171  0.95839988     1.11010
C1094       C  0.52842647  0.75693901  0.12405211     0.04650
C1095       C  0.52791554  0.75609308  0.15977168    -0.11500
C1096       C  0.99384623  0.75260354  0.17806564     0.02150
C1097       C  0.95996148  0.74979186  0.16000090    -0.10020
C1098       C  0.96010434  0.74962398  0.12426207     0.04650
C1099       C  0.99441622  0.75351905  0.10646369    -0.09440
H1100       H  0.55427414  0.75783881  0.17333277     0.10240
H1101       H  0.93340401  0.74733799  0.17370612     0.07770
H1102       H  0.99466687  0.75348931  0.07889281     0.07620
C1103       C  0.73938368  0.96440945  0.87862341     0.04650
C1104       C  0.74282101  0.96555761  0.84306654    -0.11500
C1105       C  0.74025916  0.99858646  0.82552179     0.02150
C1106       C  0.73518653  0.53049272  0.84424066    -0.10020
C1107       C  0.73288475  0.52975719  0.87994594     0.04650
C1108       C  0.73452245  0.99649395  0.89698191    -0.09440
H1109       H  0.74679253  0.94064398  0.82912659     0.10240
H1110       H  0.73246652  0.55603370  0.83101412     0.07770
H1111       H  0.73241213  0.99552277  0.92449663     0.07620
C1112       C  0.53507507  0.74720688  0.87624643     0.04650
C1113       C  0.53556086  0.74647552  0.84051987    -0.11500
C1114       C  0.00257458  0.75257610  0.82205091     0.02150
C1115       C  0.96878742  0.75937449  0.83970970    -0.10020
C1116       C  0.96738950  0.75905750  0.87547772     0.04650
C1117       C  0.00079028  0.75317513  0.89353805    -0.09440
H1118       H  0.56160168  0.74058134  0.82705077     0.10240
H1119       H  0.94348703  0.76497128  0.82550358     0.07770
H1120       H  0.00010725  0.75301006  0.92108539     0.07620
C1121       C  0.70255104  0.56938268  0.92445372     0.25120
C1122       C  0.73046818  0.56401155  0.89927511    -0.22990
C1123       C  0.75697897  0.59150289  0.89280992     0.20030
C1124       C  0.75591378  0.62364276  0.91113749     0.25060
C1125       C  0.72831249  0.62915527  0.93678956    -0.22930
C1126       C  0.70148250  0.60166626  0.94308828     0.19960
F1127       F  0.67432757  0.60589928  0.96732007    -0.12890
F1128       F  0.67614485  0.54347472  0.93082066    -0.15250
F1129       F  0.78327179  0.64862615  0.90461083    -0.15250
F1130       F  0.78515533  0.58662951  0.86962215    -0.12890
C1131       C  0.76894730  0.87882113  0.92371963     0.25120
C1132       C  0.73382653  0.86524867  0.93531890    -0.22990
C1133       C  0.70075124  0.88358715  0.92600368     0.20030
C1134       C  0.70287799  0.91544120  0.90702256     0.25060
C1135       C  0.73786683  0.92947579  0.89660667    -0.22930
C1136       C  0.77087506  0.91072437  0.90445073     0.19960
F1137       F  0.80499715  0.92402281  0.89448403    -0.12890
F1138       F  0.80151867  0.86221109  0.93219378    -0.15250
F1139       F  0.67067382  0.93306022  0.89920350    -0.15250
F1140       F  0.66618341  0.87114923  0.93571217    -0.12890
C1141       C  0.86095892  0.76448551  0.09232918     0.25120
C1142       C  0.85829829  0.73842520  0.06625182    -0.22990
C1143       C  0.88866686  0.71458494  0.06118323     0.20030
C1144       C  0.92138725  0.71789818  0.08044432     0.25060
C1145       C  0.92450159  0.74486902  0.10536607    -0.22930
C1146       C  0.89373338  0.76763949  0.11160172     0.19960
F1147       F  0.89608519  0.79420071  0.13526683    -0.12890
F1148       F  0.83260437  0.78812259  0.09834954    -0.15250
F1149       F  0.95020759  0.69471576  0.07463478    -0.15250
F1150       F  0.88721496  0.68841294  0.03707446    -0.12890
C1151       C  0.62859986  0.73910053  0.09506307     0.25120
C1152       C  0.63355044  0.76428188  0.06831841    -0.22990
C1153       C  0.60379961  0.78788486  0.06079008     0.20030
C1154       C  0.56975265  0.78580540  0.07908945     0.25060
C1155       C  0.56472196  0.76006402  0.10518164    -0.22930
C1156       C  0.59455335  0.73690600  0.11304744     0.19960
F1157       F  0.59021932  0.71092061  0.13726009    -0.12890
F1158       F  0.65610776  0.71536435  0.10311965    -0.15250
F1159       F  0.54172165  0.80909897  0.07139348    -0.15250
F1160       F  0.60735790  0.81270785  0.03544609    -0.12890
C1161       C  0.92746814  0.78555174  0.92263623     0.25120
C1162       C  0.93076413  0.76311138  0.89387189    -0.22990
C1163       C  0.89899151  0.74328276  0.88341716     0.20030
C1164       C  0.86509192  0.74507033  0.90168142     0.25060
C1165       C  0.86217659  0.76621071  0.93140826    -0.22930
C1166       C  0.89363179  0.78698214  0.94128415     0.19960
F1167       F  0.89215344  0.80797087  0.96955296    -0.12890
F1168       F  0.95708494  0.80606129  0.93287315    -0.15250
F1169       F  0.83558685  0.72478375  0.89079272    -0.15250
F1170       F  0.90117784  0.72049917  0.85644317    -0.12890
C1171       C  0.60444949  0.71510965  0.94254378     0.25120
C1172       C  0.63656122  0.73653803  0.93500297    -0.22990
C1173       C  0.63558597  0.75964332  0.90640440     0.20030
C1174       C  0.60290497  0.76250290  0.88702044     0.25060
C1175       C  0.57047937  0.74220837  0.89549961    -0.22930
C1176       C  0.57186386  0.71797261  0.92304026     0.19960
F1177       F  0.54152563  0.69702488  0.93122240    -0.12890
F1178       F  0.60397276  0.69193348  0.96938701    -0.15250
F1179       F  0.60241872  0.78657069  0.86089702    -0.15250
F1180       F  0.66570649  0.78067246  0.89776148    -0.12890
C1181       C  0.73397258  0.59035806  0.10620303     0.25120
C1182       C  0.76240778  0.56462665  0.10232029    -0.22990
C1183       C  0.79278107  0.57177957  0.07992007     0.20030
C1184       C  0.79441764  0.60414196  0.06134999     0.25060
C1185       C  0.76568386  0.62985371  0.06496188    -0.22930
C1186       C  0.73550496  0.62257407  0.08779660     0.19960
F1187       F  0.70626886  0.64579659  0.09121302    -0.12890
F1188       F  0.70375916  0.58361314  0.12683052    -0.15250
F1189       F  0.82406257  0.61030951  0.03994472    -0.15250
F1190       F  0.82099901  0.54749826  0.07626501    -0.12890
C1191       C  0.73527968  0.87102993  0.08693087     0.25120
C1192       C  0.76390643  0.86698685  0.06211451    -0.22990
C1193       C  0.79116514  0.89464151  0.05826871     0.20030
C1194       C  0.78961231  0.92559467  0.07826011     0.25060
C1195       C  0.76071039  0.93004152  0.10252574    -0.22930
C1196       C  0.73379837  0.90228520  0.10707051     0.19960
F1197       F  0.70533308  0.90599021  0.13013518    -0.12890
F1198       F  0.70864156  0.84494875  0.09162396    -0.15250
F1199       F  0.81655905  0.95145001  0.07377186    -0.15250
F1200       F  0.81890311  0.89249778  0.03427976    -0.12890
C1201       C  0.97789533  0.72891171  0.73092731     0.25120
C1202       C  0.00519454  0.74869823  0.71235898    -0.22990
C1203       C  0.53156725  0.76980737  0.73013123     0.20030
C1204       C  0.53057580  0.77121613  0.76570231     0.25060
C1205       C  0.00333247  0.75139120  0.78427858    -0.22930
C1206       C  0.97701502  0.73018755  0.76652802     0.19960
F1207       F  0.95084456  0.71011079  0.78368693    -0.12890
F1208       F  0.95157649  0.70883974  0.71456932    -0.15250
F1209       F  0.55589730  0.79250362  0.78199142    -0.15250
F1210       F  0.55881120  0.78861270  0.71306211    -0.12890
C1211       C  0.76359758  0.52792303  0.73482024     0.25120
C1212       C  0.74191359  0.00348630  0.71568949    -0.22990
C1213       C  0.72013279  0.97718836  0.73296860     0.20030
C1214       C  0.71966428  0.97559098  0.76851823     0.25060
C1215       C  0.74151367  0.99983471  0.78768181    -0.22930
C1216       C  0.76367521  0.52589970  0.77040288     0.19960
F1217       F  0.78598654  0.54909203  0.78792894    -0.12890
F1218       F  0.78435896  0.55415309  0.71912492    -0.15250
F1219       F  0.69714220  0.95070436  0.78418633    -0.15250
F1220       F  0.69987367  0.95235400  0.71539917    -0.12890
C1221       C  0.72856944  0.97872758  0.26757645     0.25120
C1222       C  0.75369028  0.00147461  0.28508443    -0.22990
C1223       C  0.77977503  0.52241107  0.26629222     0.20030
C1224       C  0.78077820  0.52067235  0.23076854     0.25060
C1225       C  0.75535053  0.99830962  0.21315492    -0.22930
C1226       C  0.72929583  0.97725869  0.23195847     0.19960
F1227       F  0.70391276  0.95588160  0.21585478    -0.12890
F1228       F  0.70363273  0.95749028  0.28498772    -0.15250
F1229       F  0.80707472  0.54057795  0.21359376    -0.15250
F1230       F  0.80383249  0.54524042  0.28230787    -0.12890
C1231       C  0.51696485  0.77351238  0.27029263     0.25120
C1232       C  0.99446776  0.74809680  0.28799913    -0.22990
C1233       C  0.97187351  0.72408699  0.26927424     0.20030
C1234       C  0.97193990  0.72531406  0.23368478     0.25060
C1235       C  0.99388178  0.75120133  0.21595416    -0.22930
C1236       C  0.51630295  0.77537551  0.23474676     0.19960
F1237       F  0.53710543  0.80140570  0.21879766    -0.12890
F1238       F  0.54008783  0.79633878  0.28738416    -0.15250
F1239       F  0.95100162  0.70062280  0.21659772    -0.15250
F1240       F  0.94896391  0.69986918  0.28541801    -0.12890
C1241       C  0.54336408  0.86851695  0.58354801     0.25120
C1242       C  0.01544996  0.87562330  0.55950543    -0.22990
C1243       C  0.98549500  0.85106908  0.55557625     0.20030
C1244       C  0.98335762  0.81981359  0.57537249     0.25060
C1245       C  0.01088589  0.81278840  0.59985596    -0.22930
C1246       C  0.54093864  0.83737734  0.60387406     0.19960
F1247       F  0.56822963  0.83084106  0.62698573    -0.12890
F1248       F  0.57276561  0.89164018  0.58737638    -0.15250
F1249       F  0.95387896  0.79673554  0.57116096    -0.15250
F1250       F  0.95791247  0.85760806  0.53276287    -0.12890
C1251       C  0.53872707  0.67439835  0.57832872     0.25120
C1252       C  0.01013387  0.67859022  0.60295915    -0.22990
C1253       C  0.98412216  0.65023413  0.60841494     0.20030
C1254       C  0.98615800  0.61861912  0.58881069     0.25060
C1255       C  0.01446945  0.61482605  0.56366382    -0.22930
C1256       C  0.54080826  0.64310482  0.55887065     0.19960
F1257       F  0.56801040  0.64126173  0.53435675    -0.12890
F1258       F  0.56483255  0.70085313  0.57292157    -0.15250
F1259       F  0.96035499  0.59194583  0.59431508    -0.15250
F1260       F  0.95597137  0.65366966  0.63183148    -0.12890
C1261       C  0.51825223  0.82729638  0.41461209     0.25120
C1262       C  0.98606695  0.81284410  0.39928651    -0.22990
C1263       C  0.95150689  0.83087677  0.40252442     0.20030
C1264       C  0.94913726  0.86296270  0.42130576     0.25060
C1265       C  0.98149627  0.87761417  0.43628377    -0.22930
C1266       C  0.51608067  0.85961866  0.43266412     0.19940
F1267       F  0.54774884  0.87314384  0.44713679    -0.12890
F1268       F  0.55185408  0.81018683  0.41181209    -0.15250
F1269       F  0.91563648  0.88005716  0.42418257    -0.15250
F1270       F  0.92014719  0.81721325  0.38769568    -0.12890
C1271       C  0.95382564  0.63429352  0.42745842     0.25120
C1272       C  0.98638516  0.61580669  0.43784177    -0.22990
C1273       C  0.52200151  0.62911238  0.42720960     0.20030
C1274       C  0.52484812  0.66058711  0.40740661     0.25060
C1275       C  0.99226201  0.67900265  0.39776048    -0.22930
C1276       C  0.95684014  0.66543987  0.40751708     0.19960
F1277       F  0.92506451  0.68297652  0.39826916    -0.12890
F1278       F  0.91891348  0.62277172  0.43705969    -0.15250
F1279       F  0.55939315  0.67375600  0.39857539    -0.15250
F1280       F  0.55414910  0.61271889  0.43721471    -0.12890
C1281       C  0.67418453  0.50990199  0.57013653     0.25120
C1282       C  0.67547396  0.99451425  0.60304051    -0.22990
C1283       C  0.64277778  0.97665127  0.61570761     0.20030
C1284       C  0.60997868  0.97478968  0.59610812     0.25060
C1285       C  0.61016591  0.98814950  0.56271344    -0.22930
C1286       C  0.64251608  0.50551759  0.54992716     0.19960
F1287       F  0.64301551  0.51961974  0.51802873    -0.12890
F1288       F  0.70303469  0.53039053  0.55759210    -0.15250
F1289       F  0.57827717  0.95956177  0.60956658    -0.15250
F1290       F  0.64257199  0.96015557  0.64658894    -0.12890
C1291       C  0.85225230  0.53156079  0.55844156     0.25120
C1292       C  0.88430532  0.01238634  0.56873229    -0.22990
C1293       C  0.88197403  0.99125941  0.59866796     0.20030
C1294       C  0.84810952  0.98817897  0.61692873     0.25060
C1295       C  0.81590158  0.00660472  0.60613855    -0.22930
C1296       C  0.81852944  0.52882400  0.57702840     0.19960
F1297       F  0.78833767  0.54799259  0.56646256    -0.12890
F1298       F  0.85302557  0.55221182  0.52982602    -0.15250
F1299       F  0.84647614  0.96578643  0.64433290    -0.15250
F1300       F  0.91212883  0.97246214  0.60988123    -0.12890
C1301       C  0.67465044  0.53961530  0.41913941     0.25120
C1302       C  0.68050796  0.01314496  0.39405327    -0.22990
C1303       C  0.65133869  0.98868060  0.38678084     0.20030
C1304       C  0.61733867  0.98984315  0.40485760     0.25060
C1305       C  0.61168544  0.01553056  0.43088046    -0.22930
C1306       C  0.64045522  0.54095772  0.43726779     0.19960
F1307       F  0.63573817  0.56687577  0.46128970    -0.12890
F1308       F  0.70205631  0.56418633  0.42607712    -0.15250
F1309       F  0.59070784  0.96452126  0.39778484    -0.15250
F1310       F  0.65644649  0.96231160  0.36324072    -0.12890
C1311       C  0.84534994  0.52640196  0.39856849     0.25120
C1312       C  0.82010548  0.99727158  0.39648861    -0.22990
C1313       C  0.82827564  0.96481988  0.41325068     0.20030
C1314       C  0.86105070  0.96176673  0.43253875     0.25060
C1315       C  0.88652114  0.99098282  0.43483661    -0.22930
C1316       C  0.87837533  0.52327767  0.41737090     0.19960
F1317       F  0.90129210  0.55257830  0.41992498    -0.12890
F1318       F  0.83730278  0.55832247  0.38329590    -0.15250
F1319       F  0.86760919  0.93039214  0.44926984    -0.15250
F1320       F  0.80432904  0.93619362  0.41107650    -0.12890
loop_ 
_geom_bond_atom_site_label_1 
_geom_bond_atom_site_label_2 
_geom_bond_distance 
_geom_bond_site_symmetry_2 
_ccdc_geom_bond_type 
O1            C9   1.278       .  A
O1          Co21   2.028       .  S
O2           C10   1.262       .  A
O2          Co22   2.011       .  S
O3           C11   1.265       .  A
O3          Co23   1.891       .  S
O4           C12   1.257   1_455  A
O4          Co24   1.953       .  S
O5          C671   1.296   1_455  A
O5          Co22   2.106       .  S
O6          C672   1.272       .  A
O6          Co21   2.031       .  S
O7          C340   1.253       .  A
O7          Co24   1.967       .  S
O8          C339   1.268   1_545  A
O8          Co23   1.967       .  S
C9          O338   1.268       .  A
C9          C325   1.483       .  S
C10         O337   1.253   1_545  A
C10         C645   1.484       .  S
C11         O665   1.296       .  A
C11         C282   1.485       .  S
C12         O666   1.272       .  A
C12         C935   1.471       .  S
O13          C26   1.258       .  A
O13         Co21   1.959       .  S
O14         C687   1.262       .  A
O14         Co22   1.880       .  S
O15         C358   1.262       .  A
O15         Co23   2.008       .  S
O16         C359   1.277       .  A
O16         Co24   2.027       .  S
O17          C29   1.265   1_545  A
O17         Co22   1.972       .  S
O18          C28   1.254       .  A
O18         Co21   1.967       .  S
O19         C686   1.272       .  A
O19         Co24   2.030       .  S
O20          C27   1.297       .  A
O20         Co23   2.112       .  S
Co21         O25   2.028       .  S
Co22       O1015   2.005   1_445  S
Co23        O355   2.015   1_545  S
Co24        O685   2.030   1_455  S
O25       Co1012   2.005       .  S
O25        Co353   2.015       .  S
O25        Co684   2.030       .  S
C26         O679   1.272       .  A
C26         C252   1.468       .  S
C27         O674   1.262       .  A
C27         C265   1.483       .  S
C28         O345   1.262       .  A
C28         C302   1.484       .  S
C29         O346   1.277       .  A
C29         C625   1.470       .  S
C30         C285   1.473       .  S
C30          C31   1.400       .  A
C30          C35   1.402       .  A
C31          C32   1.399       .  A
C31          H36   1.084       .  S
C32         C272   1.473       .  S
C32          C33   1.401       .  A
C33          C34   1.407       .  A
C33          H37   1.084       .  S
C34         C242   1.487       .  S
C34          C35   1.408       .  A
C35          H38   1.083       .  S
C39         C322   1.473       .  S
C39          C40   1.402       .  A
C39          C44   1.401       .  A
C40          C41   1.404       .  A
C40          H45   1.083       .  S
C41         C312   1.481       .  S
C41          C42   1.405       .  A
C42          C43   1.404       .  A
C42          H46   1.084       .  S
C43         C232   1.484       .  S
C43          C44   1.405       .  A
C44          H47   1.084       .  S
C48         C305   1.485       .  S
C48          C49   1.401       .  A
C48          C53   1.402       .  A
C49          C50   1.408       .  A
C49          H54   1.081       .  S
C50         C292   1.498       .  S
C50          C51   1.408       .  A
C51          C52   1.407       .  A
C51          H55   1.082       .  S
C52         C222   1.487       .  S
C52          C53   1.404       .  A
C53          H56   1.083       .  S
C57         C262   1.483       .  S
C57          C58   1.404       .  A
C57          C62   1.403       .  A
C58          C59   1.408       .  A
C58          H63   1.084       .  S
C59         C212   1.485       .  S
C59          C60   1.407       .  A
C60          C61   1.401       .  A
C60          H64   1.084       .  S
C61         C255   1.478       .  S
C61          C62   1.399       .  A
C62          H65   1.083       .  S
C66         C205   1.483       .  S
C66          C67   1.406       .  A
C66          C71   1.405       .  A
C67          C68   1.408       .  A
C67          H72   1.083       .  S
C68         C235   1.486       .  S
C68         C399   1.405       .  A
C69          C70   1.401       .  A
C69         C398   1.405   1_545  A
C69          H73   1.084       .  S
C70         C192   1.478       .  S
C70         C401   1.399   1_545  A
C71         C400   1.399       .  A
C71          H74   1.083       .  S
O75          C83   1.262       .  A
O75         Co95   1.877       .  S
O76          C84   1.255       .  A
O76         Co96   1.949       .  S
O77          C85   1.261       .  A
O77         Co97   2.009   1_554  S
O78          C86   1.278       .  A
O78         Co98   2.024   1_554  S
O79          C85   1.254       .  A
O79         Co96   1.967       .  S
O80          C86   1.268       .  A
O80         Co95   1.968       .  S
O81          C84   1.274       .  A
O81         Co98   2.037   1_554  S
O82          C83   1.298       .  A
O82         Co97   2.116   1_554  S
C83         C202   1.484       .  S
C84         C195   1.483       .  S
C85         C162   1.485       .  S
C86         C152   1.488       .  S
O87         C100   1.261       .  A
O87         Co95   2.008   1_556  S
O88         C101   1.278       .  A
O88         Co96   2.022   1_556  S
O89         C102   1.264       .  A
O89         Co97   1.882       .  S
O90         C103   1.257       .  A
O90         Co98   1.950       .  S
O91         C103   1.275       .  A
O91         Co96   2.040   1_556  S
O92         C102   1.298       .  A
O92         Co95   2.111   1_556  S
O93         C100   1.255       .  A
O93         Co98   1.971       .  S
O94         C101   1.269       .  A
O94         Co97   1.971       .  S
Co95         O99   2.000       .  S
Co96         O99   2.021       .  S
Co97         O99   2.008   1_556  S
Co98         O99   2.025   1_556  S
C100        C175   1.487       .  S
C101        C182   1.490       .  S
C102        C142   1.485       .  S
C103        C135   1.487       .  S
C104        C165   1.483       .  S
C104        C105   1.403       .  A
C104        C769   1.403   1_455  A
C105        C766   1.405   1_455  A
C105        H110   1.083       .  S
C106        C245   1.489       .  S
C106        C107   1.407       .  A
C106        C765   1.405       .  A
C107        C108   1.404       .  A
C107        H111   1.084       .  S
C108        C155   1.482       .  S
C108        C109   1.404       .  A
C109        C764   1.403       .  A
C109        H112   1.083       .  S
C113        C145   1.473       .  S
C113        C114   1.401       .  A
C113        C118   1.402       .  A
C114        C115   1.407       .  A
C114        H119   1.083       .  S
C115        C225   1.487       .  S
C115        C446   1.405       .  A
C116        C117   1.404       .  A
C116        C445   1.405   1_545  A
C116        H120   1.084       .  S
C117        C132   1.483       .  S
C117        C448   1.402   1_545  A
C118        C447   1.402       .  A
C118        H121   1.083       .  S
C122        C185   1.486       .  S
C122        C123   1.404       .  A
C122        C787   1.406       .  A
C123        C784   1.404       .  A
C123        H128   1.084       .  S
C124        C215   1.485       .  S
C124        C125   1.404       .  A
C124        C783   1.404       .  A
C125        C126   1.405       .  A
C125        H129   1.084       .  S
C126        C172   1.489       .  S
C126        C127   1.406       .  A
C127        C782   1.406       .  A
C127        H130   1.082       .  S
C131        C132   1.408       .  A
C131        C136   1.404       .  A
C131        F138   1.357       .  S
C132        C133   1.402       .  A
C133        C134   1.393       .  A
C133        F140   1.359       .  S
C134        C135   1.414       .  A
C134        F139   1.358       .  S
C135        C136   1.409       .  A
C136        F137   1.357       .  S
C141        C142   1.411       .  A
C141        C146   1.403       .  A
C141        F148   1.358       .  S
C142        C143   1.412       .  A
C143        C144   1.395       .  A
C143        F150   1.358       .  S
C144        C145   1.399       .  A
C144        F149   1.358       .  S
C145        C146   1.403       .  A
C146        F147   1.358       .  S
C151        C152   1.413       .  A
C151        C156   1.399       .  A
C151        F158   1.358       .  S
C152        C153   1.411       .  A
C153        C154   1.398       .  A
C153        F160   1.358       .  S
C154        C155   1.405       .  A
C154        F159   1.358       .  S
C155        C156   1.404       .  A
C156        F157   1.358       .  S
C161        C162   1.412       .  A
C161        C166   1.395       .  A
C161        F168   1.358       .  S
C162        C163   1.409       .  A
C163        C164   1.401       .  A
C163        F170   1.358       .  S
C164        C165   1.407       .  A
C164        F169   1.358       .  S
C165        C166   1.404       .  A
C166        F167   1.358       .  S
C171        C172   1.409       .  A
C171        C176   1.401       .  A
C171        F178   1.358       .  S
C172        C173   1.407       .  A
C173        C174   1.396       .  A
C173        F180   1.358       .  S
C174        C175   1.411       .  A
C174        F179   1.358       .  S
C175        C176   1.410       .  A
C176        F177   1.358       .  S
C181        C182   1.413       .  A
C181        C186   1.399       .  A
C181        F188   1.358       .  S
C182        C183   1.411       .  A
C183        C184   1.399       .  A
C183        F190   1.358       .  S
C184        C185   1.407       .  A
C184        F189   1.358       .  S
C185        C186   1.406       .  A
C186        F187   1.358       .  S
C191        C192   1.401       .  A
C191        C196   1.394       .  A
C191        F198   1.358       .  S
C192        C193   1.407       .  A
C193        C194   1.402       .  A
C193        F200   1.358       .  S
C194        C195   1.407       .  A
C194        F199   1.357       .  S
C195        C196   1.414       .  A
C196        F197   1.358       .  S
C201        C202   1.409       .  A
C201        C206   1.405       .  A
C201        F208   1.358       .  S
C202        C203   1.411       .  A
C203        C204   1.392       .  A
C203        F210   1.358       .  S
C204        C205   1.404       .  A
C204        F209   1.358       .  S
C205        C206   1.408       .  A
C206        F207   1.358       .  S
C211        C212   1.407       .  A
C211        C216   1.399       .  A
C211        F218   1.358       .  S
C212        C873   1.408       .  A
C213        C214   1.399       .  A
C213        C872   1.408       .  A
C213        F220   1.358       .  S
C214        C875   1.407       .  A
C214        F219   1.358       .  S
C215        C216   1.408       .  A
C215        C874   1.407       .  A
C216        F217   1.358       .  S
C221        C226   1.400       .  A
C221        C552   1.408       .  A
C221        F228   1.358       .  S
C222        C223   1.408       .  A
C222        C551   1.408       .  A
C223        C224   1.398       .  A
C223        F230   1.358       .  S
C224        C225   1.407       .  A
C224        F229   1.358       .  S
C225        C556   1.409       .  A
C226        C555   1.409   1_545  A
C226        F227   1.358       .  S
C231        C232   1.408       .  A
C231        C236   1.400       .  A
C231        F238   1.358       .  S
C232        C563   1.405       .  A
C233        C234   1.397       .  A
C233        C562   1.405       .  A
C233        F240   1.358       .  S
C234        C565   1.409   1_545  A
C234        F239   1.358       .  S
C235        C236   1.407       .  A
C235        C564   1.409       .  A
C236        F237   1.358       .  S
C241        C246   1.398       .  A
C241        C902   1.408   1_455  A
C241        F248   1.358       .  S
C242        C243   1.407       .  A
C242        C901   1.408       .  A
C243        C244   1.399       .  A
C243        F250   1.358       .  S
C244        C245   1.409       .  A
C244        F249   1.358       .  S
C245        C906   1.409       .  A
C246        C905   1.409   1_455  A
C246        F247   1.358       .  S
C251        C256   1.403       .  A
C251        C912   1.402       .  A
C251        F258   1.355       .  S
C252        C253   1.404       .  A
C252        C911   1.402       .  A
C253        C254   1.394       .  A
C253        F260   1.357       .  S
C254        C255   1.404       .  A
C254        F259   1.358       .  S
C255        C916   1.408       .  A
C256        C915   1.408       .  A
C256        F257   1.358       .  S
C261        C266   1.392       .  A
C261        C922   1.404       .  A
C261        F268   1.358       .  S
C262        C263   1.408       .  A
C262        C921   1.404       .  A
C263        C264   1.405       .  A
C263        F270   1.358       .  S
C264        C265   1.409       .  A
C264        F269   1.358       .  S
C265        C926   1.410       .  A
C266        C925   1.410       .  A
C266        F267   1.358       .  S
C271        C276   1.395       .  A
C271        C932   1.401   1_455  A
C271        F278   1.358       .  S
C272        C273   1.406       .  A
C272        C931   1.401       .  A
C273        C274   1.403       .  A
C273        F280   1.357       .  S
C274        C275   1.403       .  A
C274        F279   1.355       .  S
C275        C672   1.471       .  S
C275        C936   1.407       .  A
C276        C935   1.407   1_455  A
C276        F277   1.358       .  S
C281        C282   1.411       .  A
C281        C286   1.396       .  A
C281        F288   1.357       .  S
C282        C943   1.412       .  A
C283        C284   1.402       .  A
C283        C942   1.412   1_455  A
C283        F290   1.358       .  S
C284        C945   1.402   1_455  A
C284        F289   1.358       .  S
C285        C286   1.400       .  A
C285        C944   1.402       .  A
C286        F287   1.358       .  S
C291        C296   1.392       .  A
C291        C622   1.413   1_545  A
C291        F298   1.358       .  S
C292        C293   1.417       .  A
C292        C621   1.413       .  A
C293        C294   1.404       .  A
C293        F300   1.357       .  S
C294        C295   1.401       .  A
C294        F299   1.357       .  S
C295        C359   1.470       .  S
C295        C626   1.400       .  A
C296        C625   1.400   1_545  A
C296        F297   1.356       .  S
C301        C306   1.398       .  A
C301        C632   1.408       .  A
C301        F308   1.358       .  S
C302        C303   1.412       .  A
C302        C631   1.408       .  A
C303        C304   1.397       .  A
C303        F310   1.358       .  S
C304        C305   1.405       .  A
C304        F309   1.358       .  S
C305        C636   1.409       .  A
C306        C635   1.409       .  A
C306        F307   1.358       .  S
C311        C316   1.402       .  A
C311        C642   1.407       .  A
C311        F318   1.358       .  S
C312        C313   1.403       .  A
C312        C641   1.407       .  A
C313        C314   1.395       .  A
C313        F320   1.358       .  S
C314        C315   1.412       .  A
C314        F319   1.358       .  S
C315        C340   1.484       .  S
C315        C646   1.409       .  A
C316        C645   1.409       .  A
C316        F317   1.358       .  S
C321        C326   1.398       .  A
C321        C652   1.401   1_545  A
C321        F328   1.358       .  S
C322        C323   1.403       .  A
C322        C651   1.401       .  A
C323        C324   1.400       .  A
C323        F330   1.358       .  S
C324        C325   1.409       .  A
C324        F329   1.357       .  S
C325        C656   1.411       .  A
C326        C655   1.411   1_545  A
C326        F327   1.356       .  S
O331        C339   1.278       .  A
O331       Co351   2.028       .  S
O332        C340   1.262       .  A
O332       Co352   2.011       .  S
O333        C341   1.265       .  A
O333       Co353   1.891       .  S
O334        C342   1.257   1_455  A
O334       Co354   1.953       .  S
O335       C1001   1.296   1_455  A
O335       Co352   2.106       .  S
O336       C1002   1.272       .  A
O336       Co351   2.031       .  S
O337       Co354   1.967       .  S
O338       Co353   1.967       .  S
C339        C655   1.483       .  S
C341        O995   1.296       .  A
C341        C612   1.485       .  S
C342        O996   1.272       .  A
C342       C1265   1.471       .  S
O343        C356   1.258       .  A
O343       Co351   1.959       .  S
O344       C1017   1.262       .  A
O344       Co352   1.880       .  S
O345       Co353   2.008       .  S
O346       Co354   2.027       .  S
O347        C359   1.265       .  A
O347       Co352   1.972       .  S
O348        C358   1.254   1_565  A
O348       Co351   1.967       .  S
O349       C1016   1.272       .  A
O349       Co354   2.030       .  S
O350        C357   1.297       .  A
O350       Co353   2.112       .  S
Co351       O355   2.028       .  S
Co352       O685   2.005   1_455  S
Co354      O1015   2.030   1_455  S
O355       Co682   2.005   1_565  S
O355      Co1014   2.030       .  S
C356       O1009   1.272       .  A
C356        C582   1.468       .  S
C357       O1004   1.262       .  A
C357        C595   1.483       .  S
C358        C632   1.484       .  S
C360        C615   1.473       .  S
C360        C361   1.400       .  A
C360        C365   1.402       .  A
C361        C362   1.399       .  A
C361        H366   1.084       .  S
C362        C602   1.473       .  S
C362        C363   1.401       .  A
C363        C364   1.407       .  A
C363        H367   1.084       .  S
C364        C572   1.487       .  S
C364        C365   1.408       .  A
C365        H368   1.083       .  S
C369        C652   1.473   1_545  S
C369        C370   1.402       .  A
C369        C374   1.401   1_545  A
C370        C371   1.404       .  A
C370        H375   1.083       .  S
C371        C642   1.481       .  S
C371        C372   1.405       .  A
C372        C373   1.404       .  A
C372        H376   1.084       .  S
C373        C562   1.484       .  S
C373        C374   1.405   1_545  A
C374        H377   1.084       .  S
C378        C635   1.485       .  S
C378        C379   1.401   1_545  A
C378        C383   1.402       .  A
C379        C380   1.408       .  A
C379        H384   1.081       .  S
C380        C622   1.498       .  S
C380        C381   1.408   1_565  A
C381        C382   1.407       .  A
C381        H385   1.082       .  S
C382        C552   1.487       .  S
C382        C383   1.404       .  A
C383        H386   1.083       .  S
C387        C592   1.483       .  S
C387        C388   1.404       .  A
C387        C392   1.403       .  A
C388        C389   1.408       .  A
C388        H393   1.084       .  S
C389        C542   1.485       .  S
C389        C390   1.407       .  A
C390        C391   1.401       .  A
C390        H394   1.084       .  S
C391        C585   1.478       .  S
C391        C392   1.399       .  A
C392        H395   1.083       .  S
C396        C535   1.483       .  S
C396        C397   1.406       .  A
C396        C401   1.405       .  A
C397        C398   1.408       .  A
C397        H402   1.083       .  S
C398        C565   1.486       .  S
C399        C400   1.401       .  A
C399        H403   1.084       .  S
C400        C522   1.478       .  S
C401        H404   1.083       .  S
O405        C413   1.262       .  A
O405       Co425   1.877       .  S
O406        C414   1.255       .  A
O406       Co426   1.949       .  S
O407        C415   1.261       .  A
O407       Co427   2.009   1_554  S
O408        C416   1.278       .  A
O408       Co428   2.024   1_554  S
O409        C415   1.254       .  A
O409       Co426   1.967       .  S
O410        C416   1.268       .  A
O410       Co425   1.968       .  S
O411        C414   1.274       .  A
O411       Co428   2.037   1_554  S
O412        C413   1.298       .  A
O412       Co427   2.116   1_554  S
C413        C532   1.484       .  S
C414        C525   1.483       .  S
C415        C492   1.485       .  S
C416        C482   1.488       .  S
O417        C430   1.261       .  A
O417       Co425   2.008   1_556  S
O418        C431   1.278       .  A
O418       Co426   2.022   1_556  S
O419        C432   1.264       .  A
O419       Co427   1.882       .  S
O420        C433   1.257       .  A
O420       Co428   1.950       .  S
O421        C433   1.275       .  A
O421       Co426   2.040   1_556  S
O422        C432   1.298       .  A
O422       Co425   2.111   1_556  S
O423        C430   1.255       .  A
O423       Co428   1.971       .  S
O424        C431   1.269       .  A
O424       Co427   1.971       .  S
Co425       O429   2.000       .  S
Co426       O429   2.021       .  S
Co427       O429   2.008   1_556  S
Co428       O429   2.025   1_556  S
C430        C505   1.487       .  S
C431        C512   1.490       .  S
C432        C472   1.485       .  S
C433        C465   1.487       .  S
C434        C495   1.483       .  S
C434        C435   1.403       .  A
C434       C1099   1.403   1_455  A
C435       C1096   1.405   1_455  A
C435        H440   1.083       .  S
C436        C575   1.489       .  S
C436       C1095   1.405       .  A
C436        C437   1.407       .  A
C437        C438   1.404       .  A
C437        H441   1.084       .  S
C438        C485   1.482       .  S
C438        C439   1.404       .  A
C439       C1094   1.403       .  A
C439        H442   1.083       .  S
C443        C475   1.473       .  S
C443        C444   1.401       .  A
C443        C448   1.402       .  A
C444        C445   1.407       .  A
C444        H449   1.083       .  S
C445        C555   1.487       .  S
C446        C447   1.404       .  A
C446        H450   1.084       .  S
C447        C462   1.483       .  S
C448        H451   1.083       .  S
C452        C515   1.486       .  S
C452        C453   1.404       .  A
C452       C1117   1.406       .  A
C453       C1114   1.404       .  A
C453        H458   1.084       .  S
C454        C545   1.485       .  S
C454       C1113   1.404       .  A
C454        C455   1.404       .  A
C455        C456   1.405       .  A
C455        H459   1.084       .  S
C456        C502   1.489       .  S
C456        C457   1.406       .  A
C457       C1112   1.406       .  A
C457        H460   1.082       .  S
C461        C462   1.408       .  A
C461        C466   1.404       .  A
C461        F468   1.357       .  S
C462        C463   1.402       .  A
C463        C464   1.393       .  A
C463        F470   1.359       .  S
C464        C465   1.414       .  A
C464        F469   1.358       .  S
C465        C466   1.409       .  A
C466        F467   1.357       .  S
C471        C472   1.411       .  A
C471        C476   1.403       .  A
C471        F478   1.358       .  S
C472        C473   1.412       .  A
C473        C474   1.395       .  A
C473        F480   1.358       .  S
C474        C475   1.399       .  A
C474        F479   1.358       .  S
C475        C476   1.403       .  A
C476        F477   1.358       .  S
C481        C482   1.413       .  A
C481        C486   1.399       .  A
C481        F488   1.358       .  S
C482        C483   1.411       .  A
C483        C484   1.398       .  A
C483        F490   1.358       .  S
C484        C485   1.405       .  A
C484        F489   1.358       .  S
C485        C486   1.404       .  A
C486        F487   1.358       .  S
C491        C492   1.412       .  A
C491        C496   1.395       .  A
C491        F498   1.358       .  S
C492        C493   1.409       .  A
C493        C494   1.401       .  A
C493        F500   1.358       .  S
C494        C495   1.407       .  A
C494        F499   1.358       .  S
C495        C496   1.404       .  A
C496        F497   1.358       .  S
C501        C502   1.409       .  A
C501        C506   1.401       .  A
C501        F508   1.358       .  S
C502        C503   1.407       .  A
C503        C504   1.396       .  A
C503        F510   1.358       .  S
C504        C505   1.411       .  A
C504        F509   1.358       .  S
C505        C506   1.410       .  A
C506        F507   1.358       .  S
C511        C512   1.413       .  A
C511        C516   1.399       .  A
C511        F518   1.358       .  S
C512        C513   1.411       .  A
C513        C514   1.399       .  A
C513        F520   1.358       .  S
C514        C515   1.407       .  A
C514        F519   1.358       .  S
C515        C516   1.406       .  A
C516        F517   1.358       .  S
C521        C522   1.401       .  A
C521        C526   1.394       .  A
C521        F528   1.358       .  S
C522        C523   1.407       .  A
C523        C524   1.402       .  A
C523        F530   1.358       .  S
C524        C525   1.407       .  A
C524        F529   1.357       .  S
C525        C526   1.414       .  A
C526        F527   1.358       .  S
C531        C532   1.409       .  A
C531        C536   1.405       .  A
C531        F538   1.358       .  S
C532        C533   1.411       .  A
C533        C534   1.392       .  A
C533        F540   1.358       .  S
C534        C535   1.404       .  A
C534        F539   1.358       .  S
C535        C536   1.408       .  A
C536        F537   1.358       .  S
C541        C542   1.407       .  A
C541        C546   1.399       .  A
C541        F548   1.358       .  S
C542       C1203   1.408       .  A
C543       C1202   1.408       .  A
C543        C544   1.399       .  A
C543        F550   1.358       .  S
C544       C1205   1.407       .  A
C544        F549   1.358       .  S
C545       C1204   1.407       .  A
C545        C546   1.408       .  A
C546        F547   1.358       .  S
C551        C556   1.400       .  A
C551        F558   1.358       .  S
C552        C553   1.408   1_545  A
C553        C554   1.398       .  A
C553        F560   1.358       .  S
C554        C555   1.407       .  A
C554        F559   1.358       .  S
C556        F557   1.358       .  S
C561        C562   1.408   1_565  A
C561        C566   1.400       .  A
C561        F568   1.358       .  S
C563        C564   1.397       .  A
C563        F570   1.358       .  S
C564        F569   1.358       .  S
C565        C566   1.407       .  A
C566        F567   1.358       .  S
C571       C1232   1.408   1_455  A
C571        C576   1.398       .  A
C571        F578   1.358       .  S
C572       C1231   1.408       .  A
C572        C573   1.407       .  A
C573        C574   1.399       .  A
C573        F580   1.358       .  S
C574        C575   1.409       .  A
C574        F579   1.358       .  S
C575       C1236   1.409       .  A
C576       C1235   1.409   1_455  A
C576        F577   1.358       .  S
C581       C1242   1.402       .  A
C581        C586   1.403       .  A
C581        F588   1.355       .  S
C582       C1241   1.402       .  A
C582        C583   1.404       .  A
C583        C584   1.394       .  A
C583        F590   1.357       .  S
C584        C585   1.404       .  A
C584        F589   1.358       .  S
C585       C1246   1.408       .  A
C586       C1245   1.408       .  A
C586        F587   1.358       .  S
C591       C1252   1.404       .  A
C591        C596   1.392       .  A
C591        F598   1.358       .  S
C592       C1251   1.404       .  A
C592        C593   1.408       .  A
C593        C594   1.405       .  A
C593        F600   1.358       .  S
C594        C595   1.409       .  A
C594        F599   1.358       .  S
C595       C1256   1.410       .  A
C596       C1255   1.410       .  A
C596        F597   1.358       .  S
C601       C1262   1.401   1_455  A
C601        C606   1.395       .  A
C601        F608   1.358       .  S
C602       C1261   1.401       .  A
C602        C603   1.406       .  A
C603        C604   1.403       .  A
C603        F610   1.357       .  S
C604        C605   1.403       .  A
C604        F609   1.355       .  S
C605       C1002   1.471       .  S
C605       C1266   1.407       .  A
C606       C1265   1.407   1_455  A
C606        F607   1.358       .  S
C611        C612   1.411       .  A
C611        C616   1.396       .  A
C611        F618   1.357       .  S
C612       C1273   1.412       .  A
C613       C1272   1.412   1_455  A
C613        C614   1.402       .  A
C613        F620   1.358       .  S
C614       C1275   1.402   1_455  A
C614        F619   1.358       .  S
C615       C1274   1.402       .  A
C615        C616   1.400       .  A
C616        F617   1.358       .  S
C621        C626   1.392       .  A
C621        F628   1.358       .  S
C622        C623   1.417       .  A
C623        C624   1.404       .  A
C623        F630   1.357       .  S
C624        C625   1.401       .  A
C624        F629   1.357       .  S
C626        F627   1.356       .  S
C631        C636   1.398       .  A
C631        F638   1.358       .  S
C632        C633   1.412   1_545  A
C633        C634   1.397       .  A
C633        F640   1.358       .  S
C634        C635   1.405   1_565  A
C634        F639   1.358       .  S
C636        F637   1.358       .  S
C641        C646   1.402       .  A
C641        F648   1.358       .  S
C642        C643   1.403   1_545  A
C643        C644   1.395       .  A
C643        F650   1.358       .  S
C644        C645   1.412   1_565  A
C644        F649   1.358       .  S
C646        F647   1.358       .  S
C651        C656   1.398       .  A
C651        F658   1.358       .  S
C652        C653   1.403       .  A
C653        C654   1.400       .  A
C653        F660   1.358       .  S
C654        C655   1.409       .  A
C654        F659   1.357       .  S
C656        F657   1.356       .  S
O661        C669   1.278       .  A
O661       Co681   2.028       .  S
O662        C670   1.262       .  A
O662       Co682   2.011       .  S
O663        C671   1.265       .  A
O663       Co683   1.891       .  S
O664        C672   1.257       .  A
O664       Co684   1.953       .  S
O665       Co682   2.106       .  S
O666       Co681   2.031       .  S
O667       C1000   1.253       .  A
O667       Co684   1.967       .  S
O668        C999   1.268   1_545  A
O668       Co683   1.967       .  S
C669        O998   1.268       .  A
C669        C985   1.483       .  S
C670        O997   1.253   1_545  A
C670       C1305   1.484       .  S
C671        C942   1.485       .  S
O673        C686   1.258   1_655  A
O673       Co681   1.959       .  S
O674       Co682   1.880       .  S
O675       C1018   1.262       .  A
O675       Co683   2.008       .  S
O676       C1019   1.277       .  A
O676       Co684   2.027       .  S
O677        C689   1.265   1_545  A
O677       Co682   1.972       .  S
O678        C688   1.254       .  A
O678       Co681   1.967       .  S
O679       Co684   2.030       .  S
O680        C687   1.297   1_655  A
O680       Co683   2.112       .  S
Co681       O685   2.028       .  S
Co683      O1015   2.015   1_545  S
O685      Co1013   2.015       .  S
C686        C912   1.468       .  S
C687        C925   1.483       .  S
C688       O1005   1.262       .  A
C688        C962   1.484       .  S
C689       O1006   1.277       .  A
C689       C1285   1.470       .  S
C690        C945   1.473       .  S
C690        C691   1.400       .  A
C690        C695   1.402       .  A
C691        C692   1.399       .  A
C691        H696   1.084       .  S
C692        C932   1.473       .  S
C692        C693   1.401       .  A
C693        C694   1.407       .  A
C693        H697   1.084       .  S
C694        C902   1.487       .  S
C694        C695   1.408       .  A
C695        H698   1.083       .  S
C699        C982   1.473       .  S
C699        C700   1.402       .  A
C699        C704   1.401       .  A
C700        C701   1.404       .  A
C700        H705   1.083       .  S
C701        C972   1.481       .  S
C701        C702   1.405       .  A
C702        C703   1.404       .  A
C702        H706   1.084       .  S
C703        C892   1.484       .  S
C703        C704   1.405       .  A
C704        H707   1.084       .  S
C708        C965   1.485       .  S
C708        C709   1.401       .  A
C708        C713   1.402       .  A
C709        C710   1.408       .  A
C709        H714   1.081       .  S
C710        C952   1.498       .  S
C710        C711   1.408       .  A
C711        C712   1.407       .  A
C711        H715   1.082       .  S
C712        C882   1.487       .  S
C712        C713   1.404       .  A
C713        H716   1.083       .  S
C717        C922   1.483       .  S
C717        C718   1.404       .  A
C717        C722   1.403       .  A
C718        C719   1.408       .  A
C718        H723   1.084       .  S
C719        C872   1.485       .  S
C719        C720   1.407       .  A
C720        C721   1.401       .  A
C720        H724   1.084       .  S
C721        C915   1.478       .  S
C721        C722   1.399       .  A
C722        H725   1.083       .  S
C726        C865   1.483       .  S
C726        C727   1.406       .  A
C726        C731   1.405       .  A
C727        C728   1.408       .  A
C727        H732   1.083       .  S
C728        C895   1.486       .  S
C728       C1059   1.405       .  A
C729       C1058   1.405   1_545  A
C729        C730   1.401       .  A
C729        H733   1.084       .  S
C730        C852   1.478       .  S
C730       C1061   1.399   1_545  A
C731       C1060   1.399       .  A
C731        H734   1.083       .  S
O735        C743   1.262       .  A
O735       Co755   1.877       .  S
O736        C744   1.255       .  A
O736       Co756   1.949       .  S
O737        C745   1.261       .  A
O737       Co757   2.009   1_554  S
O738        C746   1.278       .  A
O738       Co758   2.024   1_554  S
O739        C745   1.254       .  A
O739       Co756   1.967       .  S
O740        C746   1.268       .  A
O740       Co755   1.968       .  S
O741        C744   1.274       .  A
O741       Co758   2.037   1_554  S
O742        C743   1.298       .  A
O742       Co757   2.116   1_554  S
C743        C862   1.484       .  S
C744        C855   1.483       .  S
C745        C822   1.485       .  S
C746        C812   1.488       .  S
O747        C760   1.261       .  A
O747       Co755   2.008   1_556  S
O748        C761   1.278       .  A
O748       Co756   2.022   1_556  S
O749        C762   1.264       .  A
O749       Co757   1.882       .  S
O750        C763   1.257       .  A
O750       Co758   1.950       .  S
O751        C763   1.275       .  A
O751       Co756   2.040   1_556  S
O752        C762   1.298       .  A
O752       Co755   2.111   1_556  S
O753        C760   1.255       .  A
O753       Co758   1.971       .  S
O754        C761   1.269       .  A
O754       Co757   1.971       .  S
Co755       O759   2.000       .  S
Co756       O759   2.021       .  S
Co757       O759   2.008   1_556  S
Co758       O759   2.025   1_556  S
C760        C835   1.487       .  S
C761        C842   1.490       .  S
C762        C802   1.485       .  S
C763        C795   1.487       .  S
C764        C825   1.483       .  S
C764        C765   1.403       .  A
C765        H770   1.083       .  S
C766        C905   1.489       .  S
C766        C767   1.407       .  A
C767        C768   1.404       .  A
C767        H771   1.084       .  S
C768        C815   1.482       .  S
C768        C769   1.404       .  A
C769        H772   1.083       .  S
C773        C805   1.473       .  S
C773        C774   1.401       .  A
C773        C778   1.402       .  A
C774        C775   1.407       .  A
C774        H779   1.083       .  S
C775        C885   1.487       .  S
C775       C1106   1.405       .  A
C776       C1105   1.405   1_545  A
C776        C777   1.404       .  A
C776        H780   1.084       .  S
C777        C792   1.483       .  S
C777       C1108   1.402   1_545  A
C778       C1107   1.402       .  A
C778        H781   1.083       .  S
C782        C845   1.486       .  S
C782        C783   1.404       .  A
C783        H788   1.084       .  S
C784        C875   1.485       .  S
C784        C785   1.404   1_455  A
C785        C786   1.405       .  A
C785        H789   1.084       .  S
C786        C832   1.489       .  S
C786        C787   1.406   1_655  A
C787        H790   1.082       .  S
C791        C792   1.408       .  A
C791        C796   1.404       .  A
C791        F798   1.357       .  S
C792        C793   1.402       .  A
C793        C794   1.393       .  A
C793        F800   1.359       .  S
C794        C795   1.414       .  A
C794        F799   1.358       .  S
C795        C796   1.409       .  A
C796        F797   1.357       .  S
C801        C802   1.411       .  A
C801        C806   1.403       .  A
C801        F808   1.358       .  S
C802        C803   1.412       .  A
C803        C804   1.395       .  A
C803        F810   1.358       .  S
C804        C805   1.399       .  A
C804        F809   1.358       .  S
C805        C806   1.403       .  A
C806        F807   1.358       .  S
C811        C812   1.413       .  A
C811        C816   1.399       .  A
C811        F818   1.358       .  S
C812        C813   1.411       .  A
C813        C814   1.398       .  A
C813        F820   1.358       .  S
C814        C815   1.405       .  A
C814        F819   1.358       .  S
C815        C816   1.404       .  A
C816        F817   1.358       .  S
C821        C822   1.412       .  A
C821        C826   1.395       .  A
C821        F828   1.358       .  S
C822        C823   1.409       .  A
C823        C824   1.401       .  A
C823        F830   1.358       .  S
C824        C825   1.407       .  A
C824        F829   1.358       .  S
C825        C826   1.404       .  A
C826        F827   1.358       .  S
C831        C832   1.409       .  A
C831        C836   1.401       .  A
C831        F838   1.358       .  S
C832        C833   1.407       .  A
C833        C834   1.396       .  A
C833        F840   1.358       .  S
C834        C835   1.411       .  A
C834        F839   1.358       .  S
C835        C836   1.410       .  A
C836        F837   1.358       .  S
C841        C842   1.413       .  A
C841        C846   1.399       .  A
C841        F848   1.358       .  S
C842        C843   1.411       .  A
C843        C844   1.399       .  A
C843        F850   1.358       .  S
C844        C845   1.407       .  A
C844        F849   1.358       .  S
C845        C846   1.406       .  A
C846        F847   1.358       .  S
C851        C852   1.401       .  A
C851        C856   1.394       .  A
C851        F858   1.358       .  S
C852        C853   1.407       .  A
C853        C854   1.402       .  A
C853        F860   1.358       .  S
C854        C855   1.407       .  A
C854        F859   1.357       .  S
C855        C856   1.414       .  A
C856        F857   1.358       .  S
C861        C862   1.409       .  A
C861        C866   1.405       .  A
C861        F868   1.358       .  S
C862        C863   1.411       .  A
C863        C864   1.392       .  A
C863        F870   1.358       .  S
C864        C865   1.404       .  A
C864        F869   1.358       .  S
C865        C866   1.408       .  A
C866        F867   1.358       .  S
C871        C872   1.407   1_655  A
C871        C876   1.399       .  A
C871        F878   1.358       .  S
C873        C874   1.399       .  A
C873        F880   1.358       .  S
C874        F879   1.358       .  S
C875        C876   1.408   1_455  A
C876        F877   1.358       .  S
C881       C1212   1.408       .  A
C881        C886   1.400       .  A
C881        F888   1.358       .  S
C882       C1211   1.408       .  A
C882        C883   1.408       .  A
C883        C884   1.398       .  A
C883        F890   1.358       .  S
C884        C885   1.407       .  A
C884        F889   1.358       .  S
C885       C1216   1.409       .  A
C886       C1215   1.409   1_545  A
C886        F887   1.358       .  S
C891        C892   1.408       .  A
C891        C896   1.400       .  A
C891        F898   1.358       .  S
C892       C1223   1.405       .  A
C893       C1222   1.405       .  A
C893        C894   1.397       .  A
C893        F900   1.358       .  S
C894       C1225   1.409   1_545  A
C894        F899   1.358       .  S
C895       C1224   1.409       .  A
C895        C896   1.407       .  A
C896        F897   1.358       .  S
C901        C906   1.398       .  A
C901        F908   1.358       .  S
C902        C903   1.407       .  A
C903        C904   1.399       .  A
C903        F910   1.358       .  S
C904        C905   1.409       .  A
C904        F909   1.358       .  S
C906        F907   1.358       .  S
C911        C916   1.403       .  A
C911        F918   1.355       .  S
C912        C913   1.404   1_455  A
C913        C914   1.394       .  A
C913        F920   1.357       .  S
C914        C915   1.404   1_655  A
C914        F919   1.358       .  S
C916        F917   1.358       .  S
C921        C926   1.392       .  A
C921        F928   1.358       .  S
C922        C923   1.408   1_455  A
C923        C924   1.405       .  A
C923        F930   1.358       .  S
C924        C925   1.409   1_655  A
C924        F929   1.358       .  S
C926        F927   1.358       .  S
C931        C936   1.395       .  A
C931        F938   1.358       .  S
C932        C933   1.406       .  A
C933        C934   1.403       .  A
C933        F940   1.357       .  S
C934        C935   1.403       .  A
C934        F939   1.355       .  S
C936        F937   1.358       .  S
C941        C942   1.411       .  A
C941        C946   1.396       .  A
C941        F948   1.357       .  S
C943        C944   1.402       .  A
C943        F950   1.358       .  S
C944        F949   1.358       .  S
C945        C946   1.400       .  A
C946        F947   1.358       .  S
C951       C1282   1.413   1_545  A
C951        C956   1.392       .  A
C951        F958   1.358       .  S
C952       C1281   1.413       .  A
C952        C953   1.417       .  A
C953        C954   1.404       .  A
C953        F960   1.357       .  S
C954        C955   1.401       .  A
C954        F959   1.357       .  S
C955       C1019   1.470       .  S
C955       C1286   1.400       .  A
C956       C1285   1.400   1_545  A
C956        F957   1.356       .  S
C961       C1292   1.408       .  A
C961        C966   1.398       .  A
C961        F968   1.358       .  S
C962       C1291   1.408       .  A
C962        C963   1.412       .  A
C963        C964   1.397       .  A
C963        F970   1.358       .  S
C964        C965   1.405       .  A
C964        F969   1.358       .  S
C965       C1296   1.409       .  A
C966       C1295   1.409       .  A
C966        F967   1.358       .  S
C971       C1302   1.407       .  A
C971        C976   1.402       .  A
C971        F978   1.358       .  S
C972       C1301   1.407       .  A
C972        C973   1.403       .  A
C973        C974   1.395       .  A
C973        F980   1.358       .  S
C974        C975   1.412       .  A
C974        F979   1.358       .  S
C975       C1000   1.484       .  S
C975       C1306   1.409       .  A
C976       C1305   1.409       .  A
C976        F977   1.358       .  S
C981       C1312   1.401   1_545  A
C981        C986   1.398       .  A
C981        F988   1.358       .  S
C982       C1311   1.401       .  A
C982        C983   1.403       .  A
C983        C984   1.400       .  A
C983        F990   1.358       .  S
C984        C985   1.409       .  A
C984        F989   1.357       .  S
C985       C1316   1.411       .  A
C986       C1315   1.411   1_545  A
C986        F987   1.356       .  S
O991        C999   1.278       .  A
O991      Co1011   2.028       .  S
O992       C1000   1.262       .  A
O992      Co1012   2.011       .  S
O993       C1001   1.265       .  A
O993      Co1013   1.891       .  S
O994       C1002   1.257       .  A
O994      Co1014   1.953       .  S
O995      Co1012   2.106       .  S
O996      Co1011   2.031       .  S
O997      Co1014   1.967       .  S
O998      Co1013   1.967       .  S
C999       C1315   1.483       .  S
C1001      C1272   1.485       .  S
O1003      C1016   1.258   1_655  A
O1003     Co1011   1.959       .  S
O1004     Co1012   1.880       .  S
O1005     Co1013   2.008       .  S
O1006     Co1014   2.027       .  S
O1007      C1019   1.265       .  A
O1007     Co1012   1.972       .  S
O1008      C1018   1.254   1_565  A
O1008     Co1011   1.967       .  S
O1009     Co1014   2.030       .  S
O1010      C1017   1.297   1_655  A
O1010     Co1013   2.112       .  S
Co1011     O1015   2.028       .  S
C1016      C1242   1.468       .  S
C1017      C1255   1.483       .  S
C1018      C1292   1.484       .  S
C1020      C1275   1.473       .  S
C1020      C1021   1.400       .  A
C1020      C1025   1.402       .  A
C1021      C1022   1.399       .  A
C1021      H1026   1.084       .  S
C1022      C1262   1.473       .  S
C1022      C1023   1.401       .  A
C1023      C1024   1.407       .  A
C1023      H1027   1.084       .  S
C1024      C1232   1.487       .  S
C1024      C1025   1.408       .  A
C1025      H1028   1.083       .  S
C1029      C1312   1.473   1_545  S
C1029      C1030   1.402       .  A
C1029      C1034   1.401   1_545  A
C1030      C1031   1.404       .  A
C1030      H1035   1.083       .  S
C1031      C1302   1.481       .  S
C1031      C1032   1.405       .  A
C1032      C1033   1.404       .  A
C1032      H1036   1.084       .  S
C1033      C1222   1.484       .  S
C1033      C1034   1.405   1_545  A
C1034      H1037   1.084       .  S
C1038      C1295   1.485       .  S
C1038      C1039   1.401   1_545  A
C1038      C1043   1.402       .  A
C1039      C1040   1.408       .  A
C1039      H1044   1.081       .  S
C1040      C1282   1.498       .  S
C1040      C1041   1.408   1_565  A
C1041      C1042   1.407       .  A
C1041      H1045   1.082       .  S
C1042      C1212   1.487       .  S
C1042      C1043   1.404       .  A
C1043      H1046   1.083       .  S
C1047      C1252   1.483       .  S
C1047      C1048   1.404       .  A
C1047      C1052   1.403       .  A
C1048      C1049   1.408       .  A
C1048      H1053   1.084       .  S
C1049      C1202   1.485       .  S
C1049      C1050   1.407       .  A
C1050      C1051   1.401       .  A
C1050      H1054   1.084       .  S
C1051      C1245   1.478       .  S
C1051      C1052   1.399       .  A
C1052      H1055   1.083       .  S
C1056      C1195   1.483       .  S
C1056      C1057   1.406       .  A
C1056      C1061   1.405       .  A
C1057      C1058   1.408       .  A
C1057      H1062   1.083       .  S
C1058      C1225   1.486       .  S
C1059      C1060   1.401       .  A
C1059      H1063   1.084       .  S
C1060      C1182   1.478       .  S
C1061      H1064   1.083       .  S
O1065      C1073   1.262       .  A
O1065     Co1085   1.877       .  S
O1066      C1074   1.255       .  A
O1066     Co1086   1.949       .  S
O1067      C1075   1.261       .  A
O1067     Co1087   2.009   1_554  S
O1068      C1076   1.278       .  A
O1068     Co1088   2.024   1_554  S
O1069      C1075   1.254       .  A
O1069     Co1086   1.967       .  S
O1070      C1076   1.268       .  A
O1070     Co1085   1.968       .  S
O1071      C1074   1.274       .  A
O1071     Co1088   2.037   1_554  S
O1072      C1073   1.298       .  A
O1072     Co1087   2.116   1_554  S
C1073      C1192   1.484       .  S
C1074      C1185   1.483       .  S
C1075      C1152   1.485       .  S
C1076      C1142   1.488       .  S
O1077      C1090   1.261       .  A
O1077     Co1085   2.008   1_556  S
O1078      C1091   1.278       .  A
O1078     Co1086   2.022   1_556  S
O1079      C1092   1.264       .  A
O1079     Co1087   1.882       .  S
O1080      C1093   1.257       .  A
O1080     Co1088   1.950       .  S
O1081      C1093   1.275       .  A
O1081     Co1086   2.040   1_556  S
O1082      C1092   1.298       .  A
O1082     Co1085   2.111   1_556  S
O1083      C1090   1.255       .  A
O1083     Co1088   1.971       .  S
O1084      C1091   1.269       .  A
O1084     Co1087   1.971       .  S
Co1085     O1089   2.000       .  S
Co1086     O1089   2.021       .  S
Co1087     O1089   2.008   1_556  S
Co1088     O1089   2.025   1_556  S
C1090      C1165   1.487       .  S
C1091      C1172   1.490       .  S
C1092      C1132   1.485       .  S
C1093      C1125   1.487       .  S
C1094      C1155   1.483       .  S
C1094      C1095   1.403       .  A
C1095      H1100   1.083       .  S
C1096      C1235   1.489       .  S
C1096      C1097   1.407       .  A
C1097      C1098   1.404       .  A
C1097      H1101   1.084       .  S
C1098      C1145   1.482       .  S
C1098      C1099   1.404       .  A
C1099      H1102   1.083       .  S
C1103      C1135   1.473       .  S
C1103      C1104   1.401       .  A
C1103      C1108   1.402       .  A
C1104      C1105   1.407       .  A
C1104      H1109   1.083       .  S
C1105      C1215   1.487       .  S
C1106      C1107   1.404       .  A
C1106      H1110   1.084       .  S
C1107      C1122   1.483       .  S
C1108      H1111   1.083       .  S
C1112      C1175   1.486       .  S
C1112      C1113   1.404       .  A
C1113      H1118   1.084       .  S
C1114      C1205   1.485       .  S
C1114      C1115   1.404   1_455  A
C1115      C1116   1.405       .  A
C1115      H1119   1.084       .  S
C1116      C1162   1.489       .  S
C1116      C1117   1.406   1_655  A
C1117      H1120   1.082       .  S
C1121      C1122   1.408       .  A
C1121      C1126   1.404       .  A
C1121      F1128   1.357       .  S
C1122      C1123   1.402       .  A
C1123      C1124   1.393       .  A
C1123      F1130   1.359       .  S
C1124      C1125   1.414       .  A
C1124      F1129   1.358       .  S
C1125      C1126   1.409       .  A
C1126      F1127   1.357       .  S
C1131      C1132   1.411       .  A
C1131      C1136   1.403       .  A
C1131      F1138   1.358       .  S
C1132      C1133   1.412       .  A
C1133      C1134   1.395       .  A
C1133      F1140   1.358       .  S
C1134      C1135   1.399       .  A
C1134      F1139   1.358       .  S
C1135      C1136   1.403       .  A
C1136      F1137   1.358       .  S
C1141      C1142   1.413       .  A
C1141      C1146   1.399       .  A
C1141      F1148   1.358       .  S
C1142      C1143   1.411       .  A
C1143      C1144   1.398       .  A
C1143      F1150   1.358       .  S
C1144      C1145   1.405       .  A
C1144      F1149   1.358       .  S
C1145      C1146   1.404       .  A
C1146      F1147   1.358       .  S
C1151      C1152   1.412       .  A
C1151      C1156   1.395       .  A
C1151      F1158   1.358       .  S
C1152      C1153   1.409       .  A
C1153      C1154   1.401       .  A
C1153      F1160   1.358       .  S
C1154      C1155   1.407       .  A
C1154      F1159   1.358       .  S
C1155      C1156   1.404       .  A
C1156      F1157   1.358       .  S
C1161      C1162   1.409       .  A
C1161      C1166   1.401       .  A
C1161      F1168   1.358       .  S
C1162      C1163   1.407       .  A
C1163      C1164   1.396       .  A
C1163      F1170   1.358       .  S
C1164      C1165   1.411       .  A
C1164      F1169   1.358       .  S
C1165      C1166   1.410       .  A
C1166      F1167   1.358       .  S
C1171      C1172   1.413       .  A
C1171      C1176   1.399       .  A
C1171      F1178   1.358       .  S
C1172      C1173   1.411       .  A
C1173      C1174   1.399       .  A
C1173      F1180   1.358       .  S
C1174      C1175   1.407       .  A
C1174      F1179   1.358       .  S
C1175      C1176   1.406       .  A
C1176      F1177   1.358       .  S
C1181      C1182   1.401       .  A
C1181      C1186   1.394       .  A
C1181      F1188   1.358       .  S
C1182      C1183   1.407       .  A
C1183      C1184   1.402       .  A
C1183      F1190   1.358       .  S
C1184      C1185   1.407       .  A
C1184      F1189   1.357       .  S
C1185      C1186   1.414       .  A
C1186      F1187   1.358       .  S
C1191      C1192   1.409       .  A
C1191      C1196   1.405       .  A
C1191      F1198   1.358       .  S
C1192      C1193   1.411       .  A
C1193      C1194   1.392       .  A
C1193      F1200   1.358       .  S
C1194      C1195   1.404       .  A
C1194      F1199   1.358       .  S
C1195      C1196   1.408       .  A
C1196      F1197   1.358       .  S
C1201      C1202   1.407   1_655  A
C1201      C1206   1.399       .  A
C1201      F1208   1.358       .  S
C1203      C1204   1.399       .  A
C1203      F1210   1.358       .  S
C1204      F1209   1.358       .  S
C1205      C1206   1.408   1_455  A
C1206      F1207   1.358       .  S
C1211      C1216   1.400       .  A
C1211      F1218   1.358       .  S
C1212      C1213   1.408   1_545  A
C1213      C1214   1.398       .  A
C1213      F1220   1.358       .  S
C1214      C1215   1.407       .  A
C1214      F1219   1.358       .  S
C1216      F1217   1.358       .  S
C1221      C1222   1.408   1_565  A
C1221      C1226   1.400       .  A
C1221      F1228   1.358       .  S
C1223      C1224   1.397       .  A
C1223      F1230   1.358       .  S
C1224      F1229   1.358       .  S
C1225      C1226   1.407       .  A
C1226      F1227   1.358       .  S
C1231      C1236   1.398       .  A
C1231      F1238   1.358       .  S
C1232      C1233   1.407       .  A
C1233      C1234   1.399       .  A
C1233      F1240   1.358       .  S
C1234      C1235   1.409       .  A
C1234      F1239   1.358       .  S
C1236      F1237   1.358       .  S
C1241      C1246   1.403       .  A
C1241      F1248   1.355       .  S
C1242      C1243   1.404   1_455  A
C1243      C1244   1.394       .  A
C1243      F1250   1.357       .  S
C1244      C1245   1.404   1_655  A
C1244      F1249   1.358       .  S
C1246      F1247   1.358       .  S
C1251      C1256   1.392       .  A
C1251      F1258   1.358       .  S
C1252      C1253   1.408   1_455  A
C1253      C1254   1.405       .  A
C1253      F1260   1.358       .  S
C1254      C1255   1.409   1_655  A
C1254      F1259   1.358       .  S
C1256      F1257   1.358       .  S
C1261      C1266   1.395       .  A
C1261      F1268   1.358       .  S
C1262      C1263   1.406       .  A
C1263      C1264   1.403       .  A
C1263      F1270   1.357       .  S
C1264      C1265   1.403       .  A
C1264      F1269   1.355       .  S
C1266      F1267   1.358       .  S
C1271      C1272   1.411       .  A
C1271      C1276   1.396       .  A
C1271      F1278   1.357       .  S
C1273      C1274   1.402       .  A
C1273      F1280   1.358       .  S
C1274      F1279   1.358       .  S
C1275      C1276   1.400       .  A
C1276      F1277   1.358       .  S
C1281      C1286   1.392       .  A
C1281      F1288   1.358       .  S
C1282      C1283   1.417       .  A
C1283      C1284   1.404       .  A
C1283      F1290   1.357       .  S
C1284      C1285   1.401       .  A
C1284      F1289   1.357       .  S
C1286      F1287   1.356       .  S
C1291      C1296   1.398       .  A
C1291      F1298   1.358       .  S
C1292      C1293   1.412   1_545  A
C1293      C1294   1.397       .  A
C1293      F1300   1.358       .  S
C1294      C1295   1.405   1_565  A
C1294      F1299   1.358       .  S
C1296      F1297   1.358       .  S
C1301      C1306   1.402       .  A
C1301      F1308   1.358       .  S
C1302      C1303   1.403   1_545  A
C1303      C1304   1.395       .  A
C1303      F1310   1.358       .  S
C1304      C1305   1.412   1_565  A
C1304      F1309   1.358       .  S
C1306      F1307   1.358       .  S
C1311      C1316   1.398       .  A
C1311      F1318   1.358       .  S
C1312      C1313   1.403       .  A
C1313      C1314   1.400       .  A
C1313      F1320   1.358       .  S
C1314      C1315   1.409       .  A
C1314      F1319   1.357       .  S
C1316      F1317   1.356       .  S
