geometry optimzed in LAMMPS
_audit_creation_date              2020-11-30 
_audit_creation_method            'lammps2cif' 
_symmetry_space_group_name_H-M    'P1' 
_symmetry_Int_Tables_number       1 
_symmetry_cell_setting            triclinic 
loop_ 
_symmetry_equiv_pos_as_xyz 
  x,y,z 
_cell_length_a                    37.44830113 
_cell_length_b                    33.188530335138324 
_cell_length_c                    26.462757482086776 
_cell_angle_alpha                 82.07610848666063 
_cell_angle_beta                  73.79432077879287 
_cell_angle_gamma                 85.85060202479144 
loop_ 
_atom_site_label 
_atom_site_type_symbol 
_atom_site_fract_x 
_atom_site_fract_y 
_atom_site_fract_z 
_atom_site_charge 
N1          N  0.04854940  0.49750934  0.00986343    -0.36200
N2          N  0.50064008  0.06382976  0.98282437    -0.56800
N3          N  0.44283228  0.00559202  0.99585079    -0.36200
N4          N  0.99388027  0.43812084  0.01756905    -0.56800
C5          C  0.07371799  0.02933914  0.99130759     0.27400
C6          C  0.07061570  0.46334667  0.00646792     0.27400
C7          C  0.42669194  0.04043404  0.97843878     0.27300
C8          C  0.42583902  0.47287145  0.99303175     0.27300
C9          C  0.02555536  0.08532012  0.99912685     0.36000
C10         C  0.47063473  0.08955066  0.98821425     0.36000
C11         C  0.02094040  0.41260477  0.02941202     0.36000
C12         C  0.46648811  0.41682601  0.02111079     0.36000
C13         C  0.11039600  0.01499623  0.97722310    -0.21500
C14         C  0.10764394  0.47379507  0.99110397    -0.21500
C15         C  0.39736561  0.03156433  0.95988225    -0.21500
C16         C  0.39785845  0.48728471  0.96943702    -0.21500
C17         C  0.01283661  0.12489885  0.00667983    -0.22600
C18         C  0.47939541  0.12757657  0.99639840    -0.22600
C19         C  0.00755165  0.37387406  0.04734585    -0.22600
C20         C  0.47395753  0.37682516  0.03949002    -0.22600
C21         C  0.06241816  0.07055231  0.99467782    -0.17900
C22         C  0.05829751  0.42303559  0.02004716    -0.17900
C23         C  0.43313662  0.43140400  0.00890135    -0.17900
C24         C  0.43617127  0.07998959  0.98222744    -0.17900
H25         H  0.13518833  0.03270938  0.96462028     0.15000
H26         H  0.13197702  0.45346249  0.98594487     0.15000
H27         H  0.37876587  0.05293226  0.94409972     0.15000
H28         H  0.37858910  0.46960109  0.95857116     0.15000
H29         H  0.02844811  0.14974224  0.01117791     0.13300
H30         H  0.46135437  0.15457524  0.00132320     0.13300
H31         H  0.02275266  0.34675721  0.05871993     0.13300
H32         H  0.45522768  0.35178427  0.05008961     0.13300
H33         H  0.02002466  0.49894346  0.02673604     0.26500
H34         H  0.46235160  0.00344737  0.01742965     0.26500
N35         N  0.05684849  0.49398534  0.49838756    -0.36200
N36         N  0.99962766  0.43745451  0.50723233    -0.56800
N37         N  0.44519327  0.00352299  0.51139089    -0.36200
N38         N  0.50417717  0.06057846  0.49452361    -0.56800
C39         C  0.07779749  0.45910758  0.49276853     0.27400
C40         C  0.07990234  0.02521999  0.48500003     0.27400
C41         C  0.42588782  0.47362207  0.50075372     0.27300
C42         C  0.42805228  0.03850664  0.49615174     0.27300
C43         C  0.02643820  0.41037792  0.51641854     0.36000
C44         C  0.46737413  0.41541861  0.52205522     0.36000
C45         C  0.03266312  0.08268860  0.49339466     0.36000
C46         C  0.47485179  0.08736962  0.49875119     0.36000
C47         C  0.11518627  0.46815757  0.47588569    -0.21500
C48         C  0.11643179  0.01032246  0.47095553    -0.22700
C49         C  0.39524407  0.48934768  0.48382702    -0.21500
C50         C  0.39628904  0.02960836  0.48327685    -0.21500
C51         C  0.01204908  0.37200104  0.53350445    -0.22600
C52         C  0.47447721  0.37469241  0.53763199    -0.22600
C53         C  0.02150730  0.12292960  0.49924248    -0.22600
C54         C  0.48525856  0.12556964  0.50359721    -0.22600
C55         C  0.06423658  0.41927093  0.50606470    -0.17900
C56         C  0.06917589  0.06653722  0.48934453    -0.17900
C57         C  0.43930318  0.07832980  0.49565923    -0.17900
C58         C  0.43348236  0.43165644  0.51338640    -0.17900
H59         H  0.13886419  0.44692136  0.46860364     0.15000
H60         H  0.14145645  0.02763925  0.45932597     0.15000
H61         H  0.37342226  0.47265410  0.47745815     0.15000
H62         H  0.37636249  0.05088691  0.47038908     0.15000
H63         H  0.02677442  0.34398126  0.54306183     0.13300
H64         H  0.45514900  0.35021616  0.54842169     0.13300
H65         H  0.03825799  0.14730420  0.50216153     0.13300
H66         H  0.46815511  0.15331827  0.50685534     0.13300
H67         H  0.02860169  0.49628862  0.51687319     0.26500
H68         H  0.46704026  0.00111436  0.52871809     0.26500
O69         O  0.21057585  0.25190063  0.13687339    -0.80500
O70         O  0.22674525  0.25473772  0.89448905    -0.65200
O71         O  0.23331887  0.22417302  0.03606933    -1.11800
C72         C  0.32893638  0.32034888  0.98512149     1.06400
O73         O  0.28775498  0.25016337  0.86264888    -0.78400
O74         O  0.33319691  0.23551639  0.92479315    -0.66000
Ni75       Ni  0.18975856  0.22223901  0.09463170     1.34900
C76         C  0.33164563  0.21487888  0.96920253     0.85100
O77         O  0.19324541  0.19839306  0.97224551    -0.79000
O78         O  0.16489417  0.19107577  0.05941151    -0.89200
C79         C  0.25546674  0.25212915  0.85582519     0.84700
O80         O  0.16608227  0.27158867  0.07242568    -0.67400
O81         O  0.33079098  0.31546680  0.93751443    -0.86700
C82         C  0.16660218  0.29002370  0.02692736     0.85500
C83         C  0.16862123  0.18271378  0.01250282     1.07100
H84         H  0.25144208  0.30582561  0.96199258     0.38900
O85         O  0.26364465  0.27917087  0.96228192    -1.09400
O86         O  0.30823403  0.22289819  0.01201810    -0.66000
Ni87       Ni  0.26920052  0.26339157  0.03186324     1.26300
O88         O  0.18848278  0.27926400  0.98443435    -0.66300
O89         O  0.30536758  0.30316021  0.02554130    -0.78600
C90         C  0.24334205  0.24909064  0.14249398     0.84900
O91         O  0.27148963  0.24691964  0.10289747    -0.65700
Ni92       Ni  0.30697921  0.28269343  0.90318188     1.27400
Ni93       Ni  0.22836035  0.23924106  0.96606426     1.26100
H94         H  0.24498326  0.19726013  0.03722675     0.39400
O95         O  0.20966520  0.25208323  0.63632276    -0.80500
O96         O  0.23103511  0.25246848  0.39374097    -0.65200
O97         O  0.23720482  0.22293827  0.53592471    -1.11800
C98         C  0.33136155  0.31830764  0.48829377     1.06400
O99         O  0.29214565  0.25228460  0.35889945    -0.78400
O100        O  0.33089632  0.22541555  0.42994032    -0.66000
Ni101      Ni  0.19269885  0.21913439  0.59364253     1.34900
C102        C  0.33222996  0.21114677  0.47643473     0.85100
O103        O  0.19831479  0.19565967  0.47082139    -0.79000
O104        O  0.17096868  0.18502242  0.55807951    -0.89200
C105        C  0.25929444  0.25310979  0.35388543     0.84700
O106        O  0.16687602  0.26624869  0.57018746    -0.67400
O107        O  0.33848249  0.30454834  0.44381227    -0.86700
C108        C  0.16931115  0.28589508  0.52487488     0.85500
C109        C  0.17474562  0.17793005  0.51067052     1.07100
H110        H  0.25572146  0.30442764  0.45774121     0.38900
O111        O  0.26740044  0.27774109  0.46118460    -1.09400
O112        O  0.31236247  0.22621811  0.51736928    -0.66000
Ni113      Ni  0.27051519  0.26479802  0.53249420     1.26300
O114        O  0.19282088  0.27671172  0.48283972    -0.66300
O115        O  0.30327699  0.30775717  0.52667446    -0.78600
C116        C  0.24179552  0.25250838  0.64323224     0.84900
O117        O  0.27084957  0.25130511  0.60480704    -0.65700
Ni118      Ni  0.31271783  0.27740402  0.40552929     1.27400
Ni119      Ni  0.23283509  0.23707874  0.46520983     1.26100
H120        H  0.25024807  0.19670615  0.53741849     0.39400
C121        C  0.22034422  0.26963183  0.78823331    -0.11900
C122        C  0.25173156  0.25089464  0.80182813     0.05100
C123        C  0.28002139  0.23349141  0.76249200    -0.07200
C124        C  0.27654730  0.23539505  0.71099293    -0.07900
C125        C  0.24521870  0.25409980  0.69733085    -0.02500
C126        C  0.21696567  0.27160896  0.73656728     0.04300
N127        N  0.18554963  0.29330639  0.72413462     0.66800
H128        H  0.19869488  0.28386077  0.81747358     0.15700
H129        H  0.29815975  0.22115438  0.68185634     0.15500
N130        N  0.31188309  0.21241140  0.77445723     0.74600
O131        O  0.15463536  0.27639862  0.73721173    -0.38900
O132        O  0.18658247  0.33141100  0.71201902    -0.38800
O133        O  0.31174068  0.17424171  0.78611893    -0.39500
O134        O  0.34223709  0.23033897  0.76264492    -0.39600
C135        C  0.21864694  0.26568925  0.23533343    -0.11900
C136        C  0.24816589  0.25031523  0.19616491     0.05100
C137        C  0.28131543  0.23632459  0.20943917    -0.07200
C138        C  0.28415087  0.23757690  0.26082559    -0.07900
C139        C  0.25464180  0.25287243  0.29998665    -0.02500
C140        C  0.22176959  0.26777844  0.28647531     0.04300
N141        N  0.19240387  0.28773909  0.32273204     0.66800
H142        H  0.19325948  0.27750437  0.22578713     0.15700
H143        H  0.30964514  0.22596158  0.27021131     0.15500
N144        N  0.31203127  0.21956770  0.17185775     0.74600
O145        O  0.19730412  0.32263575  0.33294596    -0.38900
O146        O  0.15985586  0.27475660  0.33543212    -0.38800
O147        O  0.33997138  0.24082113  0.14915299    -0.39500
O148        O  0.31411118  0.18183237  0.16873249    -0.39600
C149        C  0.10376522  0.37747638  0.55589924    -0.11900
C150        C  0.09123907  0.38499277  0.51026211     0.05100
C151        C  0.10457950  0.36022796  0.46938790    -0.07200
C152        C  0.13058031  0.32860013  0.47443215    -0.07900
C153        C  0.14298553  0.32063759  0.52037277    -0.02500
C154        C  0.12928542  0.34544985  0.56144961     0.04300
N155        N  0.14190086  0.33943226  0.60822140     0.66800
H156        H  0.09365655  0.39665368  0.58732105     0.15700
H157        H  0.14044619  0.30960026  0.44278111     0.15500
N158        N  0.09168064  0.36665864  0.42285047     0.74600
O159        O  0.16956763  0.35836568  0.60961682    -0.38900
O160        O  0.12134553  0.32206276  0.65072263    -0.38800
O161        O  0.11188020  0.38466242  0.38053272    -0.39500
O162        O  0.06417866  0.34752592  0.42124540    -0.39600
C163        C  0.40926964  0.39277616  0.45828098    -0.11900
C164        C  0.40684681  0.40262373  0.50869375     0.05100
C165        C  0.37965824  0.38515876  0.55285194    -0.07200
C166        C  0.35536832  0.35744726  0.54592080    -0.07900
C167        C  0.35738232  0.34763746  0.49498071    -0.02500
C168        C  0.38461218  0.36623419  0.45078355     0.04300
N169        N  0.38675164  0.36009931  0.39759490     0.66800
H170        H  0.43002029  0.40668127  0.42420182     0.15700
H171        H  0.33477860  0.34387148  0.58038569     0.15500
N172        N  0.37637555  0.39564959  0.60459007     0.74600
O173        O  0.36730130  0.38271577  0.37239929    -0.38900
O174        O  0.41270757  0.33781182  0.37295622    -0.38800
O175        O  0.36213268  0.42979304  0.61692032    -0.39500
O176        O  0.39163070  0.37301464  0.63555904    -0.39600
C177        C  0.38714154  0.12470980  0.53620513    -0.11900
C178        C  0.41226647  0.11254881  0.49053095     0.05100
C179        C  0.41099410  0.13226128  0.44055306    -0.07200
C180        C  0.38439864  0.16359892  0.43680573    -0.07900
C181        C  0.35893917  0.17633874  0.48255587    -0.02500
C182        C  0.36083289  0.15646368  0.53281422     0.04300
N183        N  0.33699825  0.16858624  0.58097965     0.66800
H184        H  0.38818763  0.10961143  0.57481603     0.15700
H185        H  0.38413345  0.17833549  0.39774527     0.15500
N186        N  0.43677982  0.12079566  0.39334908     0.74600
O187        O  0.30753262  0.14983868  0.60369811    -0.38900
O188        O  0.34904372  0.19189060  0.60585304    -0.38800
O189        O  0.42997726  0.09159769  0.37195690    -0.39500
O190        O  0.46790860  0.13724106  0.37597365    -0.39600
C191        C  0.11923379  0.11633610  0.44833779    -0.11900
C192        C  0.09741887  0.09389145  0.49365414     0.05100
C193        C  0.10192751  0.09784087  0.54358159    -0.07200
C194        C  0.12777336  0.12451398  0.54786211    -0.07900
C195        C  0.14974822  0.14778158  0.50273969    -0.02500
C196        C  0.14550523  0.14298337  0.45226122     0.04300
N197        N  0.16664862  0.16557983  0.40473402     0.66800
H198        H  0.11574356  0.11319186  0.40978572     0.15700
H199        H  0.13025022  0.12720170  0.58707044     0.15500
N200        N  0.07965959  0.07548657  0.59046419     0.74600
O201        O  0.19913848  0.15304273  0.38261104    -0.38900
O202        O  0.15017236  0.19165741  0.37893399    -0.38800
O203        O  0.08916853  0.03934656  0.60445764    -0.39500
O204        O  0.04851102  0.09020337  0.61446428    -0.39600
C205        C  0.12155483  0.34263852  0.07029975    -0.11900
C206        C  0.13997766  0.32525514  0.02374473     0.05100
C207        C  0.13144771  0.34115794  0.97575691    -0.07200
C208        C  0.10474756  0.37288154  0.97549053    -0.07900
C209        C  0.08655067  0.38967087  0.02199042    -0.02500
C210        C  0.09527931  0.37477328  0.06954835     0.04300
N211        N  0.07743320  0.39197363  0.11731988     0.66800
H212        H  0.12761834  0.33141544  0.10755565     0.15700
H213        H  0.09809898  0.38451650  0.93873205     0.15500
N214        N  0.14890566  0.32502622  0.92710405     0.74600
O215        O  0.04881033  0.37606018  0.14911525    -0.38900
O216        O  0.08779412  0.42544529  0.12491055    -0.38800
O217        O  0.13246588  0.29912410  0.91184443    -0.39500
O218        O  0.17689896  0.34205824  0.89516437    -0.39600
C219        C  0.34553250  0.37178684  0.03446485    -0.11900
C220        C  0.35609209  0.34719809  0.99323407     0.05100
C221        C  0.39274485  0.34887522  0.95949806    -0.07200
C222        C  0.41737065  0.37615775  0.96572317    -0.07900
C223        C  0.40656863  0.40132956  0.00602206    -0.02500
C224        C  0.37052979  0.39874704  0.04109654     0.04300
N225        N  0.35914394  0.42314072  0.08367152     0.66800
H226        H  0.31768175  0.37050333  0.06110603     0.15700
H227        H  0.44525238  0.37755734  0.93912862     0.15500
N228        N  0.40618114  0.32115813  0.92104850     0.74600
O229        O  0.33941125  0.45516448  0.07901416    -0.38900
O230        O  0.36314362  0.40908636  0.12862728    -0.38800
O231        O  0.41148977  0.33377068  0.87240692    -0.39500
O232        O  0.41997315  0.28698776  0.93478063    -0.39600
C233        C  0.41353638  0.13963190  0.93128737    -0.11900
C234        C  0.40871203  0.11357621  0.97859491     0.05100
C235        C  0.37896007  0.12052216  0.02270359    -0.07200
C236        C  0.35390928  0.15330258  0.01878811    -0.07900
C237        C  0.35843501  0.17991767  0.97130763    -0.02500
C238        C  0.38900716  0.17283182  0.92723254     0.04300
N239        N  0.39651040  0.19959523  0.87860708     0.66800
H240        H  0.43692227  0.13450617  0.89758999     0.15700
H241        H  0.33114779  0.15814310  0.05333620     0.15500
N242        N  0.37488473  0.09536820  0.07221672     0.74600
O243        O  0.42092539  0.22589337  0.86963760    -0.38900
O244        O  0.38547242  0.19088271  0.84067294    -0.38800
O245        O  0.39452965  0.10119383  0.10212005    -0.39500
O246        O  0.35527553  0.06435848  0.08291819    -0.39600
C247        C  0.11393295  0.11848508  0.95218432    -0.11900
C248        C  0.09007456  0.09896022  0.99819907     0.05100
C249        C  0.09265422  0.10601246  0.04807967    -0.07200
C250        C  0.11827309  0.13324023  0.05160738    -0.07900
C251        C  0.14250290  0.15331776  0.00576360    -0.02500
C252        C  0.14048963  0.14505302  0.95544147     0.04300
N253        N  0.16544956  0.16261602  0.90736907     0.66800
H254        H  0.11229300  0.11252975  0.91365963     0.15700
H255        H  0.11930132  0.13825473  0.09075883     0.15500
N256        N  0.06955056  0.08518175  0.09554008     0.74600
O257        O  0.19629626  0.14464943  0.88902165    -0.38900
O258        O  0.15404566  0.19136990  0.87867206    -0.38800
O259        O  0.07836914  0.04928206  0.11166998    -0.39500
O260        O  0.03842851  0.10084593  0.11795083    -0.39600
N261        N  0.05081867  0.99764072  0.00646710    -0.36200
N262        N  0.50029467  0.56374598  0.98804188    -0.56800
N263        N  0.44362325  0.50457516  0.00066700    -0.36200
N264        N  0.99494655  0.93870743  0.01703723    -0.56800
C265        C  0.07108587  0.52950855  0.99617355     0.27400
C266        C  0.07246172  0.96327039  0.00160249     0.27400
C267        C  0.42734291  0.53888512  0.98203019     0.27300
C268        C  0.42436046  0.97452317  0.98799817     0.27300
C269        C  0.02258958  0.58534858  0.00024233     0.36000
C270        C  0.47014148  0.58915776  0.99193486     0.36000
C271        C  0.02216308  0.91311951  0.02815311     0.36000
C272        C  0.46484770  0.91743006  0.01395890     0.36000
C273        C  0.10793132  0.51556476  0.98484346    -0.21500
C274        C  0.10960975  0.97324231  0.98349294    -0.21500
C275        C  0.39864854  0.52903302  0.96285015    -0.21500
C276        C  0.39604289  0.98987626  0.96557949    -0.21500
C277        C  0.00965427  0.62509168  0.00629958    -0.22600
C278        C  0.47828787  0.62757272  0.99959013    -0.22600
C279        C  0.00865058  0.87453497  0.04709184    -0.22600
C280        C  0.47194870  0.87717147  0.03166861    -0.22600
C281        C  0.05925039  0.57075652  0.99797132    -0.17900
C282        C  0.05973738  0.92323518  0.01693056    -0.17900
C283        C  0.43138837  0.93279406  0.00262562    -0.17900
C284        C  0.43610250  0.57884270  0.98524037    -0.17900
H285        H  0.13251164  0.53356117  0.97389218     0.15000
H286        H  0.13372548  0.95259531  0.97669793     0.15000
H287        H  0.38012718  0.54979231  0.94605744     0.15000
H288        H  0.37621264  0.97284658  0.95493840     0.15000
H289        H  0.02491061  0.65019601  0.01091683     0.13300
H290        H  0.46001733  0.65444839  0.00333539     0.13300
H291        H  0.02392961  0.84737982  0.05814999     0.13300
H292        H  0.45292552  0.85240982  0.04200150     0.13300
H293        H  0.02261696  0.99925307  0.02569441     0.26500
H294        H  0.46269964  0.50316886  0.02287988     0.26500
N295        N  0.05661236  0.99390107  0.49842110    -0.36200
N296        N  0.99937031  0.93653723  0.50978953    -0.56800
N297        N  0.44615744  0.50450617  0.50489659    -0.36200
N298        N  0.50553698  0.56116303  0.48743137    -0.56800
C299        C  0.07781871  0.95921721  0.49269581     0.27400
C300        C  0.08040365  0.52504831  0.48515170     0.27400
C301        C  0.42529730  0.97247456  0.50673458     0.27300
C302        C  0.42923822  0.53958929  0.48952649     0.27300
C303        C  0.02686578  0.90975352  0.51723574     0.36000
C304        C  0.46727216  0.91452343  0.52740684     0.36000
C305        C  0.03368057  0.58298566  0.49268008     0.36000
C306        C  0.47628281  0.58806454  0.49220821     0.36000
C307        C  0.11511905  0.96864736  0.47551580    -0.21500
C308        C  0.11682929  0.50980091  0.47137462    -0.22700
C309        C  0.39461954  0.98797431  0.48975583    -0.21500
C310        C  0.39730554  0.53094686  0.47690825    -0.21500
C311        C  0.01313381  0.87104603  0.53390399    -0.22600
C312        C  0.47462167  0.87376648  0.54243612    -0.22600
C313        C  0.02259653  0.62317216  0.49911792    -0.22600
C314        C  0.48678155  0.62602616  0.49782303    -0.22600
C315        C  0.06461894  0.91922394  0.50613668    -0.17900
C316        C  0.06996886  0.56642630  0.48946955    -0.17900
C317        C  0.44065025  0.57927893  0.48927517    -0.17900
C318        C  0.43336849  0.93052152  0.51858585    -0.17900
H319        H  0.13896413  0.94764203  0.46808761     0.15000
H320        H  0.14199466  0.52687063  0.45993437     0.15000
H321        H  0.37310490  0.97108519  0.48289087     0.15000
H322        H  0.37743656  0.55237463  0.46413188     0.15000
H323        H  0.02842845  0.84315170  0.54226600     0.13300
H324        H  0.45547323  0.84913127  0.55269284     0.13300
H325        H  0.03924376  0.64719454  0.50331403     0.13300
H326        H  0.46972639  0.65378416  0.50169917     0.13300
H327        H  0.02839853  0.99589952  0.51708930     0.26500
H328        H  0.46798095  0.50198883  0.52228033     0.26500
O329        O  0.20980757  0.75065091  0.13807471    -0.80500
O330        O  0.22544906  0.75150064  0.89555363    -0.65200
O331        O  0.23179056  0.72259110  0.03763101    -1.11800
C332        C  0.32729086  0.81962367  0.98266483     1.06400
O333        O  0.28622489  0.74440314  0.86578998    -0.78400
O334        O  0.33294705  0.73409495  0.92612577    -0.66000
Ni335      Ni  0.18813662  0.72192306  0.09594033     1.34900
C336        C  0.33070745  0.71285118  0.97034985     0.85100
O337        O  0.19163851  0.69615587  0.97437031    -0.79000
O338        O  0.16213893  0.69180782  0.06101347    -0.89200
C339        C  0.25439377  0.74809817  0.85745538     0.84700
O340        O  0.16609538  0.77204011  0.07294845    -0.67400
O341        O  0.32803426  0.81486683  0.93540375    -0.86700
C342        C  0.16617627  0.78926018  0.02704374     0.85500
C343        C  0.16606449  0.68232791  0.01458259     1.07100
H344        H  0.25018485  0.80330974  0.96215919     0.38900
O345        O  0.26232266  0.77662658  0.96275724    -1.09400
O346        O  0.30659473  0.72034176  0.01280449    -0.66000
Ni347      Ni  0.26824838  0.76163170  0.03213374     1.26300
O348        O  0.18719720  0.77706223  0.98488081    -0.66300
O349        O  0.30515548  0.80129531  0.02393519    -0.78600
C350        C  0.24270856  0.74802616  0.14318885     0.84900
O351        O  0.27076007  0.74598911  0.10333436    -0.65700
Ni352      Ni  0.30521044  0.77959160  0.90325645     1.27400
Ni353      Ni  0.22690684  0.73678245  0.96739355     1.26100
H354        H  0.24311036  0.69552894  0.03953018     0.39400
O355        O  0.21046265  0.75225210  0.63630922    -0.80500
O356        O  0.23115171  0.75211997  0.39423445    -0.65200
O357        O  0.23761553  0.72293540  0.53622371    -1.11800
C358        C  0.33183370  0.81834022  0.48907853     1.06400
O359        O  0.29213244  0.75401050  0.35849685    -0.78400
O360        O  0.33139368  0.72702189  0.42875073    -0.66000
Ni361      Ni  0.19314459  0.71934988  0.59397958     1.34900
C362        C  0.33277187  0.71193720  0.47495430     0.85100
O363        O  0.19907229  0.69521262  0.47142211    -0.79000
O364        O  0.17119722  0.68524179  0.55858850    -0.89200
C365        C  0.25922782  0.75344823  0.35409582     0.84700
O366        O  0.16751492  0.76668479  0.57060589    -0.67400
O367        O  0.33832625  0.80588545  0.44389690    -0.86700
C368        C  0.16980329  0.78603433  0.52516788     0.85500
C369        C  0.17536926  0.67766830  0.51126170     1.07100
H370        H  0.25542637  0.80465419  0.45887404     0.38900
O371        O  0.26744474  0.77809948  0.46168741    -1.09400
O372        O  0.31278177  0.72610866  0.51652349    -0.66000
Ni373      Ni  0.27100266  0.76463014  0.53281784     1.26300
O374        O  0.19298204  0.77637417  0.48314787    -0.66300
O375        O  0.30391766  0.80729989  0.52742977    -0.78600
C376        C  0.24259903  0.75207655  0.64336280     0.84900
O377        O  0.27163943  0.75056716  0.60496011    -0.65700
Ni378      Ni  0.31254520  0.77891824  0.40547518     1.27400
Ni379      Ni  0.23320688  0.73701160  0.46562208     1.26100
H380        H  0.25058139  0.69666094  0.53777747     0.39400
C381        C  0.22031047  0.76742101  0.78895037    -0.11900
C382        C  0.25141978  0.74816211  0.80280508     0.05100
C383        C  0.28013229  0.73155989  0.76320174    -0.07200
C384        C  0.27713843  0.73434081  0.71134532    -0.07900
C385        C  0.24593024  0.75329448  0.69757690    -0.02500
C386        C  0.21747852  0.77043824  0.73692711     0.04300
N387        N  0.18635676  0.79271151  0.72432957     0.66800
H388        H  0.19840543  0.78119279  0.81832581     0.15700
H389        H  0.29899772  0.72053763  0.68201145     0.15500
N390        N  0.31199519  0.71049776  0.77516266     0.74600
O391        O  0.15525788  0.77623815  0.73686288    -0.38900
O392        O  0.18786841  0.83080208  0.71227866    -0.38800
O393        O  0.31218519  0.67224742  0.78581551    -0.39500
O394        O  0.34207775  0.72878018  0.76465200    -0.39600
C395        C  0.21785814  0.76393112  0.23633611    -0.11900
C396        C  0.24765938  0.74935849  0.19681210     0.05100
C397        C  0.28110240  0.73627453  0.20975378    -0.07200
C398        C  0.28403759  0.73785398  0.26103635    -0.07900
C399        C  0.25433402  0.75260580  0.30043078    -0.02500
C400        C  0.22104362  0.76639599  0.28736324     0.04300
N401        N  0.19128206  0.78570157  0.32387420     0.66800
H402        H  0.19217722  0.77497167  0.22711124     0.15700
H403        H  0.30980882  0.72700486  0.27013290     0.15500
N404        N  0.31209620  0.72026043  0.17188381     0.74600
O405        O  0.19626390  0.81961299  0.33688283    -0.38900
O406        O  0.15859041  0.77348565  0.33420589    -0.38800
O407        O  0.33948590  0.74227930  0.14902632    -0.39500
O408        O  0.31504070  0.68252705  0.16863589    -0.39600
C409        C  0.10446685  0.87784316  0.55580877    -0.11900
C410        C  0.09199843  0.88530541  0.51011399     0.05100
C411        C  0.10556109  0.86067749  0.46915276    -0.07200
C412        C  0.13139768  0.82893371  0.47441800    -0.07900
C413        C  0.14372398  0.82098370  0.52043176    -0.02500
C414        C  0.13015931  0.84598634  0.56133361     0.04300
N415        N  0.14325600  0.84050552  0.60770646     0.66800
H416        H  0.09431101  0.89705635  0.58718240     0.15700
H417        H  0.14127076  0.80990447  0.44280440     0.15500
N418        N  0.09314568  0.86745619  0.42221642     0.74600
O419        O  0.17302665  0.85660302  0.60655543    -0.38900
O420        O  0.12181362  0.82681689  0.65170787    -0.38800
O421        O  0.11312577  0.88680530  0.38079158    -0.39500
O422        O  0.06651466  0.84755468  0.41917767    -0.39600
C423        C  0.41159073  0.89022421  0.46243431    -0.11900
C424        C  0.40728751  0.90129556  0.51279229     0.05100
C425        C  0.37878622  0.88485577  0.55587856    -0.07200
C426        C  0.35457173  0.85761257  0.54779820    -0.07900
C427        C  0.35827852  0.84676042  0.49681838    -0.02500
C428        C  0.38746298  0.86353880  0.45385448     0.04300
N429        N  0.39272056  0.85476656  0.40083570     0.66800
H430        H  0.43365649  0.90297493  0.42925219     0.15700
H431        H  0.33274762  0.84515760  0.58147182     0.15500
N432        N  0.37428822  0.89563844  0.60779254     0.74600
O433        O  0.37773431  0.87803217  0.37008527    -0.38900
O434        O  0.41768763  0.82904100  0.38204807    -0.38800
O435        O  0.35872976  0.92932715  0.61986779    -0.39500
O436        O  0.39003466  0.87405783  0.63903563    -0.39600
C437        C  0.38898362  0.62532822  0.53176871    -0.11900
C438        C  0.41350857  0.61355330  0.48537969     0.05100
C439        C  0.41145274  0.63360549  0.43592777    -0.07200
C440        C  0.38462370  0.66486753  0.43340841    -0.07900
C441        C  0.35971609  0.67718492  0.47988058    -0.02500
C442        C  0.36243246  0.65700545  0.52960811     0.04300
N443        N  0.33911073  0.66862358  0.57842151     0.66800
H444        H  0.39064637  0.60992453  0.56996514     0.15700
H445        H  0.38373271  0.67985535  0.39471187     0.15500
N446        N  0.43666035  0.62255958  0.38802537     0.74600
O447        O  0.30943324  0.65021824  0.60097997    -0.38900
O448        O  0.35167007  0.69113540  0.60371561    -0.38800
O449        O  0.42922674  0.59399879  0.36611765    -0.39500
O450        O  0.46777630  0.63898226  0.37011177    -0.39600
C451        C  0.12005840  0.61608495  0.44880047    -0.11900
C452        C  0.09833411  0.59348423  0.49401945     0.05100
C453        C  0.10325416  0.59680978  0.54390136    -0.07200
C454        C  0.12904103  0.62353234  0.54830475    -0.07900
C455        C  0.15069656  0.64720304  0.50329268    -0.02500
C456        C  0.14648793  0.64248007  0.45277400     0.04300
N457        N  0.16812509  0.66457157  0.40518364     0.66800
H458        H  0.11649485  0.61310640  0.41023952     0.15700
H459        H  0.13175377  0.62593816  0.58747002     0.15500
N460        N  0.08165604  0.57357030  0.59055233     0.74600
O461        O  0.20092351  0.65211859  0.38449185    -0.38900
O462        O  0.15201556  0.68985122  0.37792957    -0.38800
O463        O  0.09276886  0.53812759  0.60471773    -0.39500
O464        O  0.04960025  0.58650133  0.61393026    -0.39600
C465        C  0.12250624  0.84347794  0.06869083    -0.11900
C466        C  0.14005088  0.82472459  0.02294008     0.05100
C467        C  0.13107788  0.83947381  0.97491909    -0.07200
C468        C  0.10490136  0.87158476  0.97380880    -0.07900
C469        C  0.08765861  0.88977737  0.01949140    -0.02500
C470        C  0.09669443  0.87592306  0.06709118     0.04300
N471        N  0.07951391  0.89441788  0.11407979     0.66800
H472        H  0.12886077  0.83306174  0.10595717     0.15700
H473        H  0.09786625  0.88236896  0.93708837     0.15500
N474        N  0.14752041  0.82176863  0.92714237     0.74600
O475        O  0.05064454  0.87961067  0.14660361    -0.38900
O476        O  0.09041148  0.92817403  0.11981626    -0.38800
O477        O  0.13012560  0.79565612  0.91386500    -0.39500
O478        O  0.17552542  0.83768665  0.89381779    -0.39600
C479        C  0.34429523  0.87152786  0.03115859    -0.11900
C480        C  0.35416331  0.84771506  0.98907907     0.05100
C481        C  0.38977607  0.85160943  0.95252657    -0.07200
C482        C  0.41432752  0.87930975  0.95796691    -0.07900
C483        C  0.40436276  0.90328330  0.99956269    -0.02500
C484        C  0.36903155  0.89945060  0.03638533     0.04300
N485        N  0.35800840  0.92369512  0.07913706     0.66800
H486        H  0.31710142  0.86900726  0.05946099     0.15700
H487        H  0.44154021  0.88198126  0.92968539     0.15500
N488        N  0.40223519  0.82612281  0.91122293     0.74600
O489        O  0.33904058  0.95629102  0.07434557    -0.38900
O490        O  0.36124531  0.90903091  0.12429084    -0.38800
O491        O  0.40435785  0.84070029  0.86388520    -0.39500
O492        O  0.41774868  0.79198138  0.92060772    -0.39600
C493        C  0.41261853  0.63727851  0.93306222    -0.11900
C494        C  0.40820556  0.61189627  0.98085967     0.05100
C495        C  0.37835983  0.61900574  0.02479512    -0.07200
C496        C  0.35319406  0.65163486  0.02050705    -0.07900
C497        C  0.35749462  0.67781170  0.97269054    -0.02500
C498        C  0.38774751  0.67010341  0.92847149     0.04300
N499        N  0.39430089  0.69556996  0.87886860     0.66800
H500        H  0.43585695  0.63183863  0.89931654     0.15700
H501        H  0.33051176  0.65670205  0.05505277     0.15500
N502        N  0.37414007  0.59399454  0.07443655     0.74600
O503        O  0.41843692  0.72238477  0.86772978    -0.38900
O504        O  0.38244477  0.68541277  0.84242359    -0.38800
O505        O  0.39424258  0.59931867  0.10393148    -0.39500
O506        O  0.35398394  0.56340498  0.08551649    -0.39600
C507        C  0.11058680  0.61857935  0.95516214    -0.11900
C508        C  0.08638612  0.59976646  0.00133994     0.05100
C509        C  0.08839684  0.60779184  0.05109820    -0.07200
C510        C  0.11431561  0.63475795  0.05431182    -0.07900
C511        C  0.13916745  0.65376984  0.00828594    -0.02500
C512        C  0.13718630  0.64514388  0.95810844     0.04300
N513        N  0.16201740  0.66260026  0.90984654     0.66800
H514        H  0.10915971  0.61207742  0.91676040     0.15700
H515        H  0.11514196  0.64034444  0.09333880     0.15500
N516        N  0.06442449  0.58821577  0.09873889     0.74600
O517        O  0.19217102  0.64382778  0.89025160    -0.38900
O518        O  0.15087241  0.69227123  0.88218270    -0.38800
O519        O  0.07256763  0.55259872  0.11680167    -0.39500
O520        O  0.03326090  0.60463866  0.11939994    -0.39600
N521        N  0.55257900  0.49775716  0.00302586    -0.36200
N522        N  0.99806555  0.06335500  0.99400628    -0.56800
N523        N  0.94081430  0.00406187  0.00906872    -0.36200
N524        N  0.49720255  0.43885307  0.01066683    -0.56800
C525        C  0.57560670  0.02827003  0.98222736     0.27400
C526        C  0.57432582  0.46341388  0.99909007     0.27400
C527        C  0.92437238  0.03834813  0.99071671     0.27300
C528        C  0.92266932  0.47135336  0.99855687     0.27300
C529        C  0.52828246  0.08513603  0.98869777     0.36000
C530        C  0.96773582  0.08861042  0.99930324     0.36000
C531        C  0.52418773  0.41311486  0.02229638     0.36000
C532        C  0.96331667  0.41589447  0.02798767     0.36000
C533        C  0.61212329  0.01333560  0.96999268    -0.21500
C534        C  0.61147981  0.47345975  0.98313434    -0.21500
C535        C  0.89539659  0.02842431  0.97213041    -0.21500
C536        C  0.89514169  0.48527395  0.97384601    -0.21500
C537        C  0.51603307  0.12479128  0.99661015    -0.22600
C538        C  0.97610007  0.12698178  0.00684367    -0.22600
C539        C  0.51060427  0.37443932  0.04008101    -0.22600
C540        C  0.97092532  0.37601302  0.04674960    -0.22600
C541        C  0.56480129  0.06964568  0.98523709    -0.17900
C542        C  0.56162458  0.42328552  0.01298206    -0.17900
C543        C  0.93015688  0.43003381  0.01491594    -0.17900
C544        C  0.93345018  0.07834391  0.99329717    -0.17900
H545        H  0.63713737  0.03064352  0.95880323     0.15000
H546        H  0.63563958  0.45286309  0.97743610     0.15000
H547        H  0.87671507  0.04914496  0.95560638     0.15000
H548        H  0.87656796  0.46724522  0.96207556     0.15000
H549        H  0.53183932  0.14918685  0.00185984     0.13300
H550        H  0.95775452  0.15376703  0.01143653     0.13300
H551        H  0.52569967  0.34720193  0.05135453     0.13300
H552        H  0.95234807  0.35083218  0.05741576     0.13300
H553        H  0.52413197  0.49936355  0.02054184     0.26500
H554        H  0.96030923  0.00272444  0.03061472     0.26500
N555        N  0.55694071  0.49255916  0.49732030    -0.36200
N556        N  0.49887309  0.43624933  0.50968091    -0.56800
N557        N  0.94528175  0.00399786  0.50743546    -0.36200
N558        N  0.00394250  0.06165656  0.49024386    -0.56800
C559        C  0.57763012  0.45755210  0.49149970     0.27400
C560        C  0.57973791  0.02343253  0.49065873     0.27400
C561        C  0.92700531  0.47469970  0.49634944     0.27300
C562        C  0.92766721  0.03895647  0.49318657     0.27300
C563        C  0.52593460  0.40909010  0.51765767     0.36000
C564        C  0.96824833  0.41654054  0.51840676     0.36000
C565        C  0.53292874  0.08133877  0.49814549     0.36000
C566        C  0.97438316  0.08814789  0.49531279     0.36000
C567        C  0.61507125  0.46632425  0.47364313    -0.21500
C568        C  0.61616143  0.00816968  0.47675272    -0.22700
C569        C  0.89678330  0.49048182  0.47842680    -0.21500
C570        C  0.89564970  0.02993855  0.48107371    -0.21500
C571        C  0.51160438  0.37072192  0.53515336    -0.22600
C572        C  0.97516389  0.37586566  0.53443847    -0.22600
C573        C  0.52202619  0.12171059  0.50348230    -0.22600
C574        C  0.98460764  0.12643279  0.50018390    -0.22600
C575        C  0.56384693  0.41786756  0.50583019    -0.17900
C576        C  0.56930608  0.06485707  0.49463978    -0.17900
C577        C  0.93875676  0.07883552  0.49288283    -0.17900
C578        C  0.93463095  0.43272988  0.50870597    -0.17900
H579        H  0.63860249  0.44491190  0.46607723     0.15000
H580        H  0.64134073  0.02522576  0.46502759     0.15000
H581        H  0.87551086  0.47379755  0.47061208     0.15000
H582        H  0.87535260  0.05116528  0.46903370     0.15000
H583        H  0.52651101  0.34262722  0.54388596     0.13300
H584        H  0.95584627  0.35139301  0.54469007     0.13300
H585        H  0.53887719  0.14594754  0.50653185     0.13300
H586        H  0.96729569  0.15401345  0.50401958     0.13300
H587        H  0.52885263  0.49507426  0.51663435     0.26500
H588        H  0.96746029  0.00162743  0.52408571     0.26500
O589        O  0.70817617  0.24638778  0.13840654    -0.80500
O590        O  0.72805653  0.25301701  0.89249164    -0.65200
O591        O  0.73314703  0.22225151  0.03486230    -1.11800
C592        C  0.82825879  0.31748176  0.98894521     1.06400
O593        O  0.78912929  0.25291464  0.85893841    -0.78400
O594        O  0.83019134  0.23035348  0.92602282    -0.66000
Ni595      Ni  0.68819217  0.22052162  0.09173196     1.34900
C596        C  0.82975348  0.21246420  0.97159453     0.85100
O597        O  0.69576853  0.19553115  0.96839396    -0.79000
O598        O  0.66301524  0.19252486  0.05346237    -0.89200
C599        C  0.75664835  0.25279463  0.85329135     0.84700
O600        O  0.66789232  0.27201409  0.06959625    -0.67400
O601        O  0.83317022  0.30932232  0.94186610    -0.86700
C602        C  0.66801467  0.28916541  0.02363920     0.85500
C603        C  0.66899457  0.18219622  0.00708698     1.07100
H604        H  0.75121516  0.30464032  0.96004398     0.38900
O605        O  0.76352955  0.27807655  0.96146698    -1.09400
O606        O  0.80803735  0.22357008  0.01399864    -0.66000
Ni607      Ni  0.76750520  0.26277260  0.03212679     1.26300
O608        O  0.68864110  0.27641458  0.98159598    -0.66300
O609        O  0.80165025  0.30394628  0.02779405    -0.78600
C610        C  0.74101193  0.24626168  0.14323789     0.84900
O611        O  0.76916457  0.24661669  0.10335961    -0.65700
Ni612      Ni  0.80834448  0.28063242  0.90426770     1.27400
Ni613      Ni  0.72939479  0.23727739  0.96403394     1.26100
H614        H  0.74523200  0.19558019  0.03667071     0.39400
O615        O  0.71049216  0.25535419  0.63362112    -0.80500
O616        O  0.73012317  0.25112339  0.39382785    -0.65200
O617        O  0.73792206  0.22383128  0.53527849    -1.11800
C618        C  0.83156079  0.32000018  0.48423112     1.06400
O619        O  0.79113413  0.25149855  0.35786621    -0.78400
O620        O  0.83090235  0.22645594  0.42809324    -0.66000
Ni621      Ni  0.69404245  0.21954699  0.59384187     1.34900
C622        C  0.83258248  0.21262170  0.47457654     0.85100
O623        O  0.69807005  0.19504334  0.47266005    -0.79000
O624        O  0.67325269  0.18287200  0.56052178    -0.89200
C625        C  0.75811510  0.25167581  0.35360448     0.84700
O626        O  0.66611301  0.26452926  0.56976631    -0.67400
O627        O  0.83812827  0.30613866  0.43987523    -0.86700
C628        C  0.66869129  0.28462914  0.52468555     0.85500
C629        C  0.67589656  0.17621055  0.51324086     1.07100
H630        H  0.75528682  0.30464094  0.45556043     0.38900
O631        O  0.76720608  0.27810587  0.45928250    -1.09400
O632        O  0.81296471  0.22795219  0.51544645    -0.66000
Ni633      Ni  0.77095736  0.26631231  0.53034123     1.26300
O634        O  0.69281451  0.27640984  0.48273855    -0.66300
O635        O  0.80365703  0.30964341  0.52304244    -0.78600
C636        C  0.74253742  0.25549889  0.64085297     0.84900
O637        O  0.77163358  0.25395083  0.60255036    -0.65700
Ni638      Ni  0.81209552  0.27785358  0.40302162     1.27400
Ni639      Ni  0.73272539  0.23685087  0.46504711     1.26100
H640        H  0.75131531  0.19781335  0.53681369     0.39400
C641        C  0.72085332  0.27052860  0.78654718    -0.11900
C642        C  0.75263475  0.25219166  0.79939791     0.05100
C643        C  0.78119889  0.23593632  0.75938817    -0.07200
C644        C  0.77760056  0.23844926  0.70795934    -0.07900
C645        C  0.74592148  0.25677169  0.69496374    -0.02500
C646        C  0.71739736  0.27328310  0.73483589     0.04300
N647        N  0.68569518  0.29483040  0.72306038     0.66800
H648        H  0.69900212  0.28389456  0.81638373     0.15700
H649        H  0.79945175  0.22497804  0.67830623     0.15500
N650        N  0.81346173  0.21528568  0.77062992     0.74600
O651        O  0.65493083  0.27760775  0.73620837    -0.38900
O652        O  0.68630630  0.33302895  0.71189876    -0.38800
O653        O  0.81429713  0.17697603  0.78030694    -0.39500
O654        O  0.84327362  0.23407709  0.76012367    -0.39600
C655        C  0.71613463  0.26176229  0.23647237    -0.11900
C656        C  0.74590165  0.24737136  0.19683853     0.05100
C657        C  0.77949989  0.23447175  0.20943216    -0.07200
C658        C  0.78262006  0.23604442  0.26058327    -0.07900
C659        C  0.75296710  0.25066303  0.30014277    -0.02500
C660        C  0.71952687  0.26426832  0.28737233     0.04300
N661        N  0.68981675  0.28345849  0.32404435     0.66800
H662        H  0.69038394  0.27268762  0.22737179     0.15700
H663        H  0.80850581  0.22532619  0.26941464     0.15500
N664        N  0.81042653  0.21853132  0.17135722     0.74600
O665        O  0.69427439  0.31813084  0.33537998    -0.38900
O666        O  0.65741675  0.27014210  0.33606218    -0.38800
O667        O  0.83787830  0.24049736  0.14863656    -0.39500
O668        O  0.81324536  0.18084907  0.16777149    -0.39600
C669        C  0.60218495  0.37517873  0.55646237    -0.11900
C670        C  0.59071501  0.38357210  0.51002860     0.05100
C671        C  0.60483869  0.35959495  0.46849816    -0.07200
C672        C  0.63057763  0.32775781  0.47373485    -0.07900
C673        C  0.64205480  0.31901004  0.52038367    -0.02500
C674        C  0.62758892  0.34309261  0.56207313     0.04300
N675        N  0.63960802  0.33654091  0.60933630     0.66800
H676        H  0.59147703  0.39383413  0.58834479     0.15700
H677        H  0.64109992  0.30934491  0.44156978     0.15500
N678        N  0.59310149  0.36716129  0.42102691     0.74600
O679        O  0.66781377  0.35430149  0.61114277    -0.38900
O680        O  0.61834544  0.31976035  0.65163758    -0.38800
O681        O  0.61408112  0.38562711  0.37976260    -0.39500
O682        O  0.56559433  0.34893358  0.41762797    -0.39600
C683        C  0.91151082  0.39217673  0.45403933    -0.11900
C684        C  0.90797913  0.40372613  0.50394806     0.05100
C685        C  0.87954578  0.38805370  0.54771026    -0.07200
C686        C  0.85495775  0.36064629  0.54091332    -0.07900
C687        C  0.85802558  0.34910325  0.49047418    -0.02500
C688        C  0.88679523  0.36558796  0.44665377     0.04300
N689        N  0.89091990  0.35674755  0.39393371     0.66800
H690        H  0.93334808  0.40456226  0.42026300     0.15700
H691        H  0.83335421  0.34858804  0.57516222     0.15500
N692        N  0.87547700  0.39982572  0.59902498     0.74600
O693        O  0.87400279  0.37902515  0.36474749    -0.38900
O694        O  0.91658745  0.33229247  0.37353548    -0.38800
O695        O  0.86159507  0.43450899  0.60945332    -0.39500
O696        O  0.89011291  0.37789343  0.63129962    -0.39600
C697        C  0.88716113  0.12567772  0.53400417    -0.11900
C698        C  0.91164384  0.11301084  0.48812694     0.05100
C699        C  0.91040189  0.13294708  0.43826202    -0.07200
C700        C  0.88422165  0.16473281  0.43477035    -0.07900
C701        C  0.85924652  0.17781706  0.48066348    -0.02500
C702        C  0.86137573  0.15803847  0.53086315     0.04300
N703        N  0.83847265  0.17097497  0.57914467     0.66800
H704        H  0.88845489  0.11065861  0.57254434     0.15700
H705        H  0.88389818  0.17952669  0.39575746     0.15500
N706        N  0.93600635  0.12147266  0.39091834     0.74600
O707        O  0.80896035  0.15273207  0.60326554    -0.38900
O708        O  0.85143972  0.19449331  0.60270825    -0.38800
O709        O  0.92936864  0.09188228  0.37007346    -0.39500
O710        O  0.96672998  0.13866226  0.37252015    -0.39600
C711        C  0.62037720  0.11322011  0.45268120    -0.11900
C712        C  0.59783643  0.09204765  0.49846908     0.05100
C713        C  0.60213384  0.09688577  0.54824990    -0.07200
C714        C  0.62829531  0.12346532  0.55189657    -0.07900
C715        C  0.65090954  0.14559672  0.50624475    -0.02500
C716        C  0.64706702  0.13958051  0.45595809     0.04300
N717        N  0.66934813  0.16036243  0.40785478     0.66800
H718        H  0.61721359  0.10919924  0.41422425     0.15700
H719        H  0.63045963  0.12703436  0.59100033     0.15500
N720        N  0.57937860  0.07551944  0.59556510     0.74600
O721        O  0.70164403  0.14642268  0.38739777    -0.38900
O722        O  0.65412211  0.18646857  0.38038042    -0.38800
O723        O  0.58758777  0.03896965  0.60977310    -0.39500
O724        O  0.54890833  0.09157034  0.61966515    -0.39600
C725        C  0.62512365  0.34423099  0.06473137    -0.11900
C726        C  0.64233062  0.32504752  0.01923745     0.05100
C727        C  0.63339616  0.33976716  0.97116655    -0.07200
C728        C  0.60687979  0.37154731  0.97010533    -0.07900
C729        C  0.58956006  0.38979214  0.01572618    -0.02500
C730        C  0.59922387  0.37660747  0.06304450     0.04300
N731        N  0.58283687  0.39593414  0.10955971     0.66800
H732        H  0.63176506  0.33415153  0.10187734     0.15700
H733        H  0.59982937  0.38221960  0.93336779     0.15500
N734        N  0.65061180  0.32274745  0.92309489     0.74600
O735        O  0.55239771  0.38390104  0.14082219    -0.38900
O736        O  0.59631514  0.42803027  0.11591598    -0.38800
O737        O  0.63351386  0.29735803  0.90803258    -0.39500
O738        O  0.67915371  0.33876084  0.89119283    -0.39600
C739        C  0.84296947  0.37053774  0.03736222    -0.11900
C740        C  0.85497680  0.34427271  0.99815569     0.05100
C741        C  0.89237021  0.34489073  0.96691667    -0.07200
C742        C  0.91628977  0.37284339  0.97333521    -0.07900
C743        C  0.90410882  0.39955401  0.01169006    -0.02500
C744        C  0.86730300  0.39799567  0.04446838     0.04300
N745        N  0.85439213  0.42407005  0.08503405     0.66800
H746        H  0.81449274  0.37020830  0.06201608     0.15700
H747        H  0.94471442  0.37355054  0.94843815     0.15500
N748        N  0.90711923  0.31576437  0.93070458     0.74600
O749        O  0.83334494  0.45456393  0.07817741    -0.38900
O750        O  0.85827327  0.41253921  0.13071741    -0.38800
O751        O  0.91356371  0.32659513  0.88147723    -0.39500
O752        O  0.92101981  0.28246206  0.94711276    -0.39600
C753        C  0.91181430  0.13688535  0.93932544    -0.11900
C754        C  0.90604396  0.11161165  0.98743605     0.05100
C755        C  0.87520567  0.11889196  0.03001955    -0.07200
C756        C  0.85028435  0.15139766  0.02392120    -0.07900
C757        C  0.85598570  0.17735156  0.97577688    -0.02500
C758        C  0.88737444  0.16979345  0.93315269     0.04300
N759        N  0.89599752  0.19619946  0.88422564     0.66800
H760        H  0.93594411  0.13149918  0.90676906     0.15700
H761        H  0.82670210  0.15661216  0.05728295     0.15500
N762        N  0.86984041  0.09440039  0.08020954     0.74600
O763        O  0.91730696  0.22525934  0.87826035    -0.38900
O764        O  0.88879066  0.18571102  0.84418737    -0.38800
O765        O  0.88836011  0.10073226  0.11135626    -0.39500
O766        O  0.84966609  0.06384114  0.09098639    -0.39600
C767        C  0.61575048  0.11848670  0.94425245    -0.11900
C768        C  0.59248768  0.09758735  0.98972843     0.05100
C769        C  0.59478025  0.10390217  0.04002985    -0.07200
C770        C  0.61970457  0.13153517  0.04453464    -0.07900
C771        C  0.64330837  0.15293451  0.99926403    -0.02500
C772        C  0.64140873  0.14575058  0.94849721     0.04300
N773        N  0.66496778  0.16593024  0.90097381     0.66800
H774        H  0.61399719  0.11350721  0.90540807     0.15700
H775        H  0.62071881  0.13585759  0.08394262     0.15500
N776        N  0.57172829  0.08233510  0.08692609     0.74600
O777        O  0.69541975  0.14891078  0.87858216    -0.38900
O778        O  0.65251619  0.19668486  0.87662112    -0.38800
O779        O  0.58076643  0.04631908  0.10224913    -0.39500
O780        O  0.54048854  0.09757802  0.10966302    -0.39600
N781        N  0.55224345  0.99696268  0.99596656    -0.36200
N782        N  0.99555107  0.56306450  0.99445661    -0.56800
N783        N  0.93965721  0.50337111  0.00695811    -0.36200
N784        N  0.49584557  0.93898352  0.00374738    -0.56800
C785        C  0.57543243  0.52948754  0.98928165     0.27400
C786        C  0.57344880  0.96225321  0.99210598     0.27400
C787        C  0.92321108  0.53739602  0.98788765     0.27300
C788        C  0.92294799  0.97230295  0.00168483     0.27300
C789        C  0.52740127  0.58564769  0.99434313     0.36000
C790        C  0.96524501  0.58826754  0.99802174     0.36000
C791        C  0.52258490  0.91272574  0.01513720     0.36000
C792        C  0.96417185  0.91664176  0.02887579     0.36000
C793        C  0.61216382  0.51520060  0.97720676    -0.21500
C794        C  0.61078302  0.97163175  0.97605115    -0.21500
C795        C  0.89526708  0.52704656  0.96757093    -0.21500
C796        C  0.89465414  0.98665191  0.97871534    -0.21500
C797        C  0.51467702  0.62535812  0.00104549    -0.22600
C798        C  0.97321629  0.62691904  0.00500997    -0.22600
C799        C  0.50858502  0.87417498  0.03236262    -0.22600
C800        C  0.97180767  0.87680696  0.04772009    -0.22600
C801        C  0.56396204  0.57072656  0.99186760    -0.17900
C802        C  0.56011252  0.92238020  0.00647056    -0.17900
C803        C  0.93068658  0.93083548  0.01696587    -0.17900
C804        C  0.93129415  0.57751463  0.99137006    -0.17900
H805        H  0.63690893  0.53294712  0.96602686     0.15000
H806        H  0.63464337  0.95061546  0.97041160     0.15000
H807        H  0.87687193  0.54748609  0.95011381     0.15000
H808        H  0.87529352  0.96891279  0.96812742     0.15000
H809        H  0.53004040  0.65018976  0.00616409     0.13300
H810        H  0.95482147  0.65370638  0.00832141     0.13300
H811        H  0.52338673  0.84663031  0.04339049     0.13300
H812        H  0.95306488  0.85175991  0.05927828     0.13300
H813        H  0.52385063  0.99895604  0.01370839     0.26500
H814        H  0.95826082  0.50227388  0.02988481     0.26500
N815        N  0.55619521  0.99235569  0.50426107    -0.36200
N816        N  0.49855657  0.93565027  0.51571378    -0.56800
N817        N  0.94663764  0.50552673  0.50223079    -0.36200
N818        N  0.00517480  0.56246340  0.48786733    -0.56800
C819        C  0.57712684  0.95746944  0.49868414     0.27400
C820        C  0.58069887  0.52342956  0.48342111     0.27400
C821        C  0.92540743  0.97285489  0.50295739     0.27300
C822        C  0.92966039  0.54066377  0.48719627     0.27300
C823        C  0.52575276  0.90860334  0.52348732     0.36000
C824        C  0.96821370  0.91510319  0.52175505     0.36000
C825        C  0.53430378  0.58156796  0.49167116     0.36000
C826        C  0.97578974  0.58918913  0.49252520     0.36000
C827        C  0.61451061  0.96651349  0.48151402    -0.21500
C828        C  0.61701024  0.50794731  0.46887867    -0.22700
C829        C  0.89428110  0.98826914  0.48706056    -0.21500
C830        C  0.89839963  0.53209868  0.47282240    -0.21500
C831        C  0.51169779  0.87004182  0.54022318    -0.22600
C832        C  0.97598084  0.87439851  0.53643529    -0.22600
C833        C  0.52352588  0.62185979  0.49778227    -0.22600
C834        C  0.98591451  0.62713260  0.49881654    -0.22600
C835        C  0.56357577  0.91764052  0.51214557    -0.17900
C836        C  0.57054637  0.56477077  0.48824955    -0.17900
C837        C  0.94041902  0.58028397  0.48871606    -0.17900
C838        C  0.93386720  0.93088986  0.51417102    -0.17900
H839        H  0.63818241  0.94527063  0.47420248     0.15000
H840        H  0.64229546  0.52482956  0.45688747     0.15000
H841        H  0.87266701  0.97130012  0.48059579     0.15000
H842        H  0.87870372  0.55359650  0.45973091     0.15000
H843        H  0.52675421  0.84198667  0.54866026     0.13300
H844        H  0.95701006  0.84958702  0.54694259     0.13300
H845        H  0.54042741  0.64582325  0.50147772     0.13300
H846        H  0.96867715  0.65476158  0.50276926     0.13300
H847        H  0.52798263  0.99469030  0.52285593     0.26500
H848        H  0.96791350  0.50284598  0.52069044     0.26500
O849        O  0.70755688  0.75079364  0.14015775    -0.80500
O850        O  0.72802452  0.75118109  0.89540547    -0.65200
O851        O  0.73283714  0.72408181  0.03824954    -1.11800
C852        C  0.82934716  0.81601496  0.99342127     1.06400
O853        O  0.78822678  0.76109350  0.85839350    -0.78400
O854        O  0.82446787  0.72756317  0.92838576    -0.66000
Ni855      Ni  0.68764497  0.72358167  0.09471938     1.34900
C856        C  0.82660214  0.71160168  0.97377915     0.85100
O857        O  0.69615861  0.69522002  0.97301100    -0.79000
O858        O  0.66253332  0.69466446  0.05743782    -0.89200
C859        C  0.75600452  0.75495035  0.85522774     0.84700
O860        O  0.66744787  0.77457165  0.07070759    -0.67400
O861        O  0.83608798  0.80366612  0.94830993    -0.86700
C862        C  0.66731271  0.79017944  0.02422655     0.85500
C863        C  0.66882826  0.68312278  0.01167919     1.07100
H864        H  0.75062054  0.80606448  0.96172002     0.38900
O865        O  0.76305976  0.77961299  0.96383448    -1.09400
O866        O  0.80812881  0.72560112  0.01639760    -0.66000
Ni867      Ni  0.76696992  0.76479090  0.03477528     1.26300
O868        O  0.68817059  0.77647820  0.98301043    -0.66300
O869        O  0.80028041  0.80672790  0.03043853    -0.78600
C870        C  0.74026619  0.74947497  0.14563358     0.84900
O871        O  0.76856429  0.74899814  0.10606154    -0.65700
Ni872      Ni  0.80874388  0.78130058  0.90804286     1.27400
Ni873      Ni  0.72941294  0.73766160  0.96723114     1.26100
H874        H  0.74485112  0.69743524  0.04110865     0.39400
O875        O  0.70939613  0.75163205  0.63728014    -0.80500
O876        O  0.72899417  0.75165058  0.39676838    -0.65200
O877        O  0.73717620  0.72217444  0.53763367    -1.11800
C878        C  0.83079603  0.81790761  0.48977713     1.06400
O879        O  0.78984832  0.75474502  0.35982386    -0.78400
O880        O  0.82836964  0.72550573  0.43015054    -0.66000
Ni881      Ni  0.69318390  0.71682579  0.59604044     1.34900
C882        C  0.83100828  0.71141526  0.47608734     0.85100
O883        O  0.69785618  0.69436315  0.47383122    -0.79000
O884        O  0.67254879  0.68087432  0.56137385    -0.89200
C885        C  0.75678990  0.75355835  0.35626663     0.84700
O886        O  0.66514037  0.76235259  0.57331166    -0.67400
O887        O  0.83775757  0.80375283  0.44560235    -0.86700
C888        C  0.66769553  0.78311057  0.52862740     0.85500
C889        C  0.67565428  0.67488017  0.51370023     1.07100
H890        H  0.75399503  0.80427427  0.46001327     0.38900
O891        O  0.76604484  0.77775792  0.46305760    -1.09400
O892        O  0.81228855  0.72668547  0.51758433    -0.66000
Ni893      Ni  0.76991875  0.76466770  0.53393361     1.26300
O894        O  0.69174905  0.77536417  0.48640797    -0.66300
O895        O  0.80232286  0.80812748  0.52792185    -0.78600
C896        C  0.74145691  0.75256258  0.64425781     0.84900
O897        O  0.77059366  0.75119142  0.60596803    -0.65700
Ni898      Ni  0.81106701  0.77815629  0.40700717     1.27400
Ni899      Ni  0.73194316  0.73634612  0.46760316     1.26100
H900        H  0.75073176  0.69621465  0.53845393     0.39400
C901        C  0.71935175  0.76943479  0.78934283    -0.11900
C902        C  0.75165280  0.75278922  0.80202444     0.05100
C903        C  0.78070689  0.73703385  0.76226211    -0.07200
C904        C  0.77704727  0.73827365  0.71104700    -0.07900
C905        C  0.74477965  0.75485538  0.69814643    -0.02500
C906        C  0.71582606  0.77104854  0.73782969     0.04300
N907        N  0.68370337  0.79146384  0.72595547     0.66800
H908        H  0.69720743  0.78249536  0.81905968     0.15700
H909        H  0.79937465  0.72531115  0.68150418     0.15500
N910        N  0.81359522  0.71821488  0.77369043     0.74600
O911        O  0.65380328  0.77272657  0.73742019    -0.38900
O912        O  0.68265815  0.82982606  0.71732520    -0.38800
O913        O  0.81516518  0.68020564  0.78647939    -0.39500
O914        O  0.84301256  0.73793170  0.76115690    -0.39600
C915        C  0.71488448  0.76417185  0.23916166    -0.11900
C916        C  0.74485608  0.75018765  0.19942128     0.05100
C917        C  0.77835949  0.73710814  0.21214269    -0.07200
C918        C  0.78130284  0.73836548  0.26337224    -0.07900
C919        C  0.75153836  0.75270874  0.30295303    -0.02500
C920        C  0.71805710  0.76618163  0.29028564     0.04300
N921        N  0.68808074  0.78468678  0.32733765     0.66800
H922        H  0.68913055  0.77506648  0.23005210     0.15700
H923        H  0.80716069  0.72759242  0.27226127     0.15500
N924        N  0.80939188  0.72131055  0.17410715     0.74600
O925        O  0.69190564  0.81948090  0.33887683    -0.38900
O926        O  0.65596627  0.77059563  0.33955321    -0.38800
O927        O  0.83703098  0.74317745  0.15215129    -0.39500
O928        O  0.81209769  0.68371250  0.16998694    -0.39600
C929        C  0.60192821  0.87405576  0.56201521    -0.11900
C930        C  0.59057878  0.88331473  0.51556143     0.05100
C931        C  0.60446778  0.85970765  0.47357560    -0.07200
C932        C  0.62980220  0.82736383  0.47841245    -0.07900
C933        C  0.64123086  0.81780923  0.52501632    -0.02500
C934        C  0.62706555  0.84156117  0.56712313     0.04300
N935        N  0.63929418  0.83440391  0.61418765     0.66800
H936        H  0.59138092  0.89238724  0.59427561     0.15700
H937        H  0.64012029  0.80925500  0.44588975     0.15500
N938        N  0.59288591  0.86814490  0.42603133     0.74600
O939        O  0.66918718  0.84942022  0.61463869    -0.38900
O940        O  0.61710196  0.82032080  0.65733149    -0.38800
O941        O  0.61371862  0.88768009  0.38555583    -0.39500
O942        O  0.56594782  0.84955589  0.42144529    -0.39600
C943        C  0.91055104  0.89033768  0.45968206    -0.11900
C944        C  0.90738034  0.90148109  0.50969763     0.05100
C945        C  0.87949813  0.88500423  0.55370238    -0.07200
C946        C  0.85483275  0.85763362  0.54690256    -0.07900
C947        C  0.85746556  0.84666828  0.49631779    -0.02500
C948        C  0.88594275  0.86357887  0.45237740     0.04300
N949        N  0.88983228  0.85504344  0.39958340     0.66800
H950        H  0.93203307  0.90317294  0.42574532     0.15700
H951        H  0.83356242  0.84508278  0.58125257     0.15500
N952        N  0.87611572  0.89583005  0.60529004     0.74600
O953        O  0.87233170  0.87710351  0.37099781    -0.38900
O954        O  0.91564017  0.83096096  0.37859011    -0.38800
O955        O  0.86075807  0.92949839  0.61781798    -0.39500
O956        O  0.89262950  0.87431343  0.63562613    -0.39600
C957        C  0.88647471  0.62353378  0.53163309    -0.11900
C958        C  0.91294543  0.61430974  0.48538482     0.05100
C959        C  0.91224006  0.63632623  0.43640220    -0.07200
C960        C  0.88505188  0.66721876  0.43420672    -0.07900
C961        C  0.85822316  0.67694470  0.48053315    -0.02500
C962        C  0.85928409  0.65456494  0.52975649     0.04300
N963        N  0.83296288  0.66260314  0.57822965     0.66800
H964        H  0.88686139  0.60635735  0.56942182     0.15700
H965        H  0.88531490  0.68392577  0.39593591     0.15500
N966        N  0.93893157  0.62736725  0.38860544     0.74600
O967        O  0.80311980  0.64356078  0.59428126    -0.38900
O968        O  0.84277329  0.68199936  0.60961955    -0.38800
O969        O  0.93358890  0.59898951  0.36464033    -0.39500
O970        O  0.96918704  0.64564412  0.37262366    -0.39600
C971        C  0.62215293  0.61286624  0.44901233    -0.11900
C972        C  0.59898421  0.59129419  0.49381605     0.05100
C973        C  0.60246124  0.59519219  0.54434301    -0.07200
C974        C  0.62813312  0.62166510  0.54975073    -0.07900
C975        C  0.65123764  0.64434241  0.50510349    -0.02500
C976        C  0.64856162  0.63883354  0.45401916     0.04300
N977        N  0.67202435  0.65944968  0.40677733     0.66800
H978        H  0.61977338  0.60937959  0.40997070     0.15700
H979        H  0.62958071  0.62467735  0.58936700     0.15500
N980        N  0.57947648  0.57281543  0.59059343     0.74600
O981        O  0.70452649  0.64528293  0.38807679    -0.38900
O982        O  0.65789005  0.68575551  0.37815887    -0.38800
O983        O  0.58792818  0.53611228  0.60363191    -0.39500
O984        O  0.54842380  0.58795445  0.61422450    -0.39600
C985        C  0.62242449  0.84470626  0.06290342    -0.11900
C986        C  0.64099381  0.82520473  0.01819182     0.05100
C987        C  0.63272210  0.83869336  0.96932337    -0.07200
C988        C  0.60589733  0.86987908  0.96655495    -0.07900
C989        C  0.58750458  0.88867888  0.01128359    -0.02500
C990        C  0.59612257  0.87640442  0.05956107     0.04300
N991        N  0.57835507  0.89608680  0.10534547     0.66800
H992        H  0.62833361  0.83545261  0.10071774     0.15700
H993        H  0.59961668  0.87982086  0.92910415     0.15500
N994        N  0.65109327  0.82117430  0.92203976     0.74600
O995        O  0.54751833  0.88398078  0.13530550    -0.38900
O996        O  0.59097667  0.92862336  0.11196219    -0.38800
O997        O  0.63478081  0.79526183  0.90659570    -0.39500
O998        O  0.67983391  0.83730098  0.89082811    -0.39600
C999        C  0.84480564  0.86844898  0.04234871    -0.11900
C1000       C  0.85637023  0.84303109  0.00198853     0.05100
C1001       C  0.89316235  0.84566082  0.96842506    -0.07200
C1002       C  0.91664351  0.87442982  0.97414371    -0.07900
C1003       C  0.90476442  0.90019408  0.01367554    -0.02500
C1004       C  0.86874632  0.89679398  0.04848733     0.04300
N1005       N  0.85628793  0.92175103  0.09035525     0.66800
H1006       H  0.81688605  0.86685763  0.06874399     0.15700
H1007       H  0.94452785  0.87658502  0.94763613     0.15500
N1008       N  0.90766589  0.81854955  0.92941028     0.74600
O1009       O  0.83441353  0.95191531  0.08570719    -0.38900
O1010       O  0.86167714  0.90954508  0.13502689    -0.38800
O1011       O  0.91034243  0.83080537  0.88122948    -0.39500
O1012       O  0.92457220  0.78596672  0.94154062    -0.39600
C1013       C  0.90782253  0.63545802  0.93829819    -0.11900
C1014       C  0.90311355  0.61021298  0.98628785     0.05100
C1015       C  0.87271049  0.61721236  0.02969196    -0.07200
C1016       C  0.84760903  0.64989875  0.02485325    -0.07900
C1017       C  0.85249018  0.67597495  0.97696762    -0.02500
C1018       C  0.88303757  0.66828194  0.93324549     0.04300
N1019       N  0.89067584  0.69478763  0.88439306     0.66800
H1020       H  0.93149861  0.63025410  0.90502673     0.15700
H1021       H  0.82452418  0.65515363  0.05884522     0.15500
N1022       N  0.86791579  0.59213127  0.07937244     0.74600
O1023       O  0.91003515  0.72549790  0.87877053    -0.38900
O1024       O  0.88386529  0.68374605  0.84438132    -0.38800
O1025       O  0.88653059  0.59837853  0.11043188    -0.39500
O1026       O  0.84896304  0.56066813  0.08903154    -0.39600
C1027       C  0.61540123  0.61866855  0.95029218    -0.11900
C1028       C  0.59120418  0.59926769  0.99605121     0.05100
C1029       C  0.59263630  0.60709199  0.04617348    -0.07200
C1030       C  0.61793848  0.63448544  0.05013990    -0.07900
C1031       C  0.64270565  0.65412164  0.00454172    -0.02500
C1032       C  0.64134993  0.64572304  0.95404011     0.04300
N1033       N  0.66576294  0.66446635  0.90625799     0.66800
H1034       H  0.61424406  0.61254853  0.91160821     0.15700
H1035       H  0.61838114  0.63992873  0.08939361     0.15500
N1036       N  0.56845624  0.58719271  0.09339398     0.74600
O1037       O  0.69587487  0.64624840  0.88513039    -0.38900
O1038       O  0.65435104  0.69515979  0.88052935    -0.38800
O1039       O  0.57573462  0.55089670  0.11002178    -0.39500
O1040       O  0.53807281  0.60445503  0.11552263    -0.39600
loop_ 
_geom_bond_atom_site_label_1 
_geom_bond_atom_site_label_2 
_geom_bond_distance 
_geom_bond_site_symmetry_2 
_ccdc_geom_bond_type 
N1            C6   1.352       .  A
N1          C265   1.351   1_554  A
N1           H33   1.037       .  S
N2           C10   1.348       .  A
N2          C529   1.350       .  A
N3            C7   1.350       .  A
N3          C268   1.352   1_545  A
N3           H34   1.039   1_556  S
N4           C11   1.350   1_655  A
N4          C532   1.349       .  A
C5          N261   1.351   1_546  A
C5           C13   1.386       .  A
C5           C21   1.410       .  A
C6           C22   1.413       .  A
C6           C14   1.387   1_554  A
C7           C15   1.386       .  A
C7           C24   1.408       .  A
C8          N263   1.352   1_556  A
C8           C23   1.413   1_556  A
C8           C16   1.388       .  A
C9          N522   1.350   1_455  A
C9           C21   1.410       .  A
C9           C17   1.386   1_556  A
C10          C24   1.407       .  A
C10          C18   1.386       .  A
C11          C19   1.386       .  A
C11          C22   1.411       .  A
C12         N524   1.350       .  A
C12          C20   1.386       .  A
C12          C23   1.412       .  A
C13         C274   1.374   1_545  A
C13          H25   1.082       .  S
C14         C273   1.374       .  A
C14          H26   1.082       .  S
C15         C276   1.374   1_545  A
C15          H27   1.082       .  S
C16         C275   1.374       .  A
C16          H28   1.082       .  S
C17         C538   1.371   1_455  A
C17          H29   1.082       .  S
C18         C537   1.370       .  A
C18          H30   1.082   1_556  S
C19         C540   1.373   1_455  A
C19          H31   1.082       .  S
C20         C539   1.373       .  A
C20          H32   1.082       .  S
C21         C248   1.480       .  S
C22         C209   1.481       .  S
C23         C223   1.483       .  S
C24         C234   1.473       .  S
N35          C39   1.352       .  A
N35         C300   1.350       .  A
N35          H67   1.036       .  S
N36          C43   1.349   1_655  A
N36         C564   1.348       .  A
N37          C42   1.353       .  A
N37         C301   1.353   1_545  A
N37          H68   1.037       .  S
N38          C46   1.352       .  A
N38         C565   1.351       .  A
C39          C47   1.387       .  A
C39          C55   1.414       .  A
C40         N295   1.350   1_545  A
C40          C56   1.412       .  A
C40          C48   1.387       .  A
C41         N297   1.352       .  A
C41          C49   1.388       .  A
C41          C58   1.414       .  A
C42          C57   1.413       .  A
C42          C50   1.387       .  A
C43          C55   1.410       .  A
C43          C51   1.386       .  A
C44         N556   1.348       .  A
C44          C58   1.408       .  A
C44          C52   1.387       .  A
C45         N558   1.351       .  A
C45          C53   1.386       .  A
C45          C56   1.413       .  A
C46          C54   1.386       .  A
C46          C57   1.412       .  A
C47         C308   1.375       .  A
C47          H59   1.082       .  S
C48         C307   1.375   1_545  A
C48          H60   1.082       .  S
C49         C310   1.372       .  A
C49          H61   1.082       .  S
C50         C309   1.373   1_545  A
C50          H62   1.082       .  S
C51         C572   1.372   1_455  A
C51          H63   1.082       .  S
C52         C571   1.371       .  A
C52          H64   1.082       .  S
C53         C574   1.372   1_455  A
C53          H65   1.082       .  S
C54         C573   1.373       .  A
C54          H66   1.082       .  S
C55         C150   1.480       .  S
C56         C192   1.480       .  S
C57         C178   1.484       .  S
C58         C164   1.476       .  S
O69         Ni75   1.931       .  S
O69          C90   1.272       .  A
O70         Ni93   1.910       .  S
O70          C79   1.268       .  A
O71         Ni75   1.909       .  S
O71         Ni93   1.908   1_554  S
O71         Ni87   1.908       .  S
O71          H94   0.966       .  S
C72         C220   1.476       .  S
C72          O89   1.275   1_556  A
C72          O81   1.274       .  A
O73         Ni92   1.923       .  S
O73          C79   1.267       .  A
O74         Ni92   1.894       .  S
O74          C76   1.265       .  A
Ni75         O78   1.922       .  S
Ni75         O80   1.905       .  S
C76         C237   1.484       .  S
C76          O86   1.272   1_556  A
O77         Ni93   1.916       .  S
O77          C83   1.274   1_556  A
O78          C83   1.277       .  A
C79         C122   1.480       .  S
O80          C82   1.269       .  A
O81         Ni92   1.915       .  S
C82         C206   1.490       .  S
C82          O88   1.272   1_554  A
C83         C251   1.491       .  S
H84          O85   0.966       .  S
O85         Ni93   1.912       .  S
O85         Ni87   1.908   1_556  S
O85         Ni92   1.911       .  S
O86         Ni87   1.924       .  S
Ni87         O91   1.908       .  S
Ni87         O89   1.917       .  S
O88         Ni93   1.928       .  S
C90         C136   1.487       .  S
C90          O91   1.268       .  A
O95        Ni101   1.928       .  S
O95         C116   1.268       .  A
O96        Ni119   1.908       .  S
O96         C105   1.268       .  A
O97        Ni101   1.919       .  S
O97        Ni119   1.915       .  S
O97        Ni113   1.910       .  S
O97         H120   0.968       .  S
C98         C167   1.486       .  S
C98         O115   1.273       .  A
C98         O107   1.273       .  A
O99        Ni118   1.928       .  S
O99         C105   1.272       .  A
O100       Ni118   1.904       .  S
O100        C102   1.269       .  A
Ni101       O104   1.919       .  S
Ni101       O106   1.901       .  S
C102        C181   1.494       .  S
C102        O112   1.274       .  A
O103       Ni119   1.917       .  S
O103        C109   1.274       .  A
O104        C109   1.276       .  A
C105        C139   1.486       .  S
O106        C108   1.266       .  A
O107       Ni118   1.921       .  S
C108        C153   1.476       .  S
C108        O114   1.270       .  A
C109        C195   1.492       .  S
H110        O111   0.963       .  S
O111       Ni119   1.909       .  S
O111       Ni113   1.911       .  S
O111       Ni118   1.912       .  S
O112       Ni113   1.938       .  S
Ni113       O117   1.908       .  S
Ni113       O115   1.910       .  S
O114       Ni119   1.920       .  S
C116        C125   1.481       .  S
C116        O117   1.268       .  A
C121        C122   1.402       .  A
C121        C126   1.400       .  A
C121        H128   1.084       .  S
C122        C123   1.415       .  A
C123        C124   1.397       .  A
C123        N130   1.429       .  S
C124        C125   1.401       .  A
C124        H129   1.082       .  S
C125        C126   1.414       .  A
C126        N127   1.428       .  S
N127        O131   1.262       .  A
N127        O132   1.262       .  A
N130        O134   1.262       .  A
N130        O133   1.262       .  A
C135        C136   1.408       .  A
C135        C140   1.402       .  A
C135        H142   1.084       .  S
C136        C137   1.412       .  A
C137        C138   1.400       .  A
C137        N144   1.429       .  S
C138        C139   1.406       .  A
C138        H143   1.084       .  S
C139        C140   1.413       .  A
C140        N141   1.432       .  S
N141        O145   1.262       .  A
N141        O146   1.262       .  A
N144        O148   1.262       .  A
N144        O147   1.262       .  A
C149        C150   1.399       .  A
C149        C154   1.397       .  A
C149        H156   1.084       .  S
C150        C151   1.407       .  A
C151        C152   1.398       .  A
C151        N158   1.428       .  S
C152        C153   1.404       .  A
C152        H157   1.084       .  S
C153        C154   1.413       .  A
C154        N155   1.428       .  S
N155        O159   1.262       .  A
N155        O160   1.262       .  A
N158        O162   1.262       .  A
N158        O161   1.261       .  A
C163        C164   1.394       .  A
C163        C168   1.391       .  A
C163        H170   1.084       .  S
C164        C165   1.405       .  A
C165        C166   1.403       .  A
C165        N172   1.429       .  S
C166        C167   1.411       .  A
C166        H171   1.083       .  S
C167        C168   1.420       .  A
C168        N169   1.429       .  S
N169        O173   1.262       .  A
N169        O174   1.262       .  A
N172        O176   1.262       .  A
N172        O175   1.262       .  A
C177        C178   1.398       .  A
C177        C182   1.401       .  A
C177        H184   1.084       .  S
C178        C179   1.404       .  A
C179        C180   1.400       .  A
C179        N186   1.429       .  S
C180        C181   1.411       .  A
C180        H185   1.083       .  S
C181        C182   1.419       .  A
C182        N183   1.427       .  S
N183        O187   1.262       .  A
N183        O188   1.262       .  A
N186        O190   1.262       .  A
N186        O189   1.262       .  A
C191        C192   1.398       .  A
C191        C196   1.403       .  A
C191        H198   1.084       .  S
C192        C193   1.402       .  A
C193        C194   1.395       .  A
C193        N200   1.429       .  S
C194        C195   1.410       .  A
C194        H199   1.083       .  S
C195        C196   1.420       .  A
C196        N197   1.429       .  S
N197        O201   1.262       .  A
N197        O202   1.261       .  A
N200        O204   1.262       .  A
N200        O203   1.262       .  A
C205        C206   1.411       .  A
C205        C210   1.400       .  A
C205        H212   1.083       .  S
C206        C207   1.418   1_554  A
C207        C208   1.399       .  A
C207        N214   1.429       .  S
C208        C209   1.398   1_556  A
C208        H213   1.084       .  S
C209        C210   1.404       .  A
C210        N211   1.429       .  S
N211        O215   1.262       .  A
N211        O216   1.262       .  A
N214        O218   1.262       .  A
N214        O217   1.262       .  A
C219        C220   1.404   1_554  A
C219        C224   1.401       .  A
C219        H226   1.084       .  S
C220        C221   1.413       .  A
C221        C222   1.394       .  A
C221        N228   1.428       .  S
C222        C223   1.398   1_556  A
C222        H227   1.084       .  S
C223        C224   1.409       .  A
C224        N225   1.428       .  S
N225        O229   1.262       .  A
N225        O230   1.262       .  A
N228        O232   1.261       .  A
N228        O231   1.262       .  A
C233        C234   1.395       .  A
C233        C238   1.395       .  A
C233        H240   1.084       .  S
C234        C235   1.403   1_556  A
C235        C236   1.396       .  A
C235        N242   1.429       .  S
C236        C237   1.409   1_554  A
C236        H241   1.083       .  S
C237        C238   1.420       .  A
C238        N239   1.429       .  S
N239        O243   1.261       .  A
N239        O244   1.261       .  A
N242        O246   1.262       .  A
N242        O245   1.262       .  A
C247        C248   1.400       .  A
C247        C252   1.403       .  A
C247        H254   1.084       .  S
C248        C249   1.402   1_556  A
C249        C250   1.394       .  A
C249        N256   1.430       .  S
C250        C251   1.410       .  A
C250        H255   1.083       .  S
C251        C252   1.419   1_554  A
C252        N253   1.429       .  S
N253        O257   1.262       .  A
N253        O258   1.262       .  A
N256        O260   1.262       .  A
N256        O259   1.262       .  A
N261        C266   1.350       .  A
N261        H293   1.038       .  S
N262        C789   1.350       .  A
N262        C270   1.348       .  A
N263        C267   1.351   1_554  A
N263        H294   1.039       .  S
N264        C271   1.349   1_655  A
N264        C792   1.349       .  A
C265        C273   1.387       .  A
C265        C281   1.411       .  A
C266        C282   1.411       .  A
C266        C274   1.388   1_554  A
C267        C275   1.386       .  A
C267        C284   1.408       .  A
C268        C283   1.412   1_556  A
C268        C276   1.388       .  A
C269        N782   1.350   1_454  A
C269        C281   1.410   1_554  A
C269        C277   1.387       .  A
C270        C284   1.407       .  A
C270        C278   1.386       .  A
C271        C279   1.386       .  A
C271        C282   1.410       .  A
C272        N784   1.351       .  A
C272        C280   1.386       .  A
C272        C283   1.412       .  A
C273        H285   1.082       .  S
C274        H286   1.082       .  S
C275        H287   1.082       .  S
C276        H288   1.082       .  S
C277        C798   1.371   1_455  A
C277        H289   1.082       .  S
C278        C797   1.370   1_556  A
C278        H290   1.082   1_556  S
C279        C800   1.372   1_455  A
C279        H291   1.082       .  S
C280        C799   1.373       .  A
C280        H292   1.082       .  S
C281        C508   1.478   1_556  S
C282        C469   1.477       .  S
C283        C483   1.484   1_554  S
C284        C494   1.475       .  S
N295        C299   1.352       .  A
N295        H327   1.036       .  S
N296        C303   1.350   1_655  A
N296        C824   1.349       .  A
N297        C302   1.352       .  A
N297        H328   1.037       .  S
N298        C825   1.351       .  A
N298        C306   1.351       .  A
C299        C307   1.388       .  A
C299        C315   1.414       .  A
C300        C316   1.411       .  A
C300        C308   1.387       .  A
C301        C309   1.388       .  A
C301        C318   1.414       .  A
C302        C317   1.413       .  A
C302        C310   1.387       .  A
C303        C315   1.411       .  A
C303        C311   1.386       .  A
C304        N816   1.348       .  A
C304        C318   1.408       .  A
C304        C312   1.387       .  A
C305        N818   1.351       .  A
C305        C313   1.387       .  A
C305        C316   1.413       .  A
C306        C314   1.386       .  A
C306        C317   1.411       .  A
C307        H319   1.082       .  S
C308        H320   1.082       .  S
C309        H321   1.082       .  S
C310        H322   1.082       .  S
C311        C832   1.371   1_455  A
C311        H323   1.082       .  S
C312        C831   1.370       .  A
C312        H324   1.082       .  S
C313        C834   1.373   1_455  A
C313        H325   1.082       .  S
C314        C833   1.373       .  A
C314        H326   1.082       .  S
C315        C410   1.480       .  S
C316        C452   1.479       .  S
C317        C438   1.482       .  S
C318        C424   1.476       .  S
O329       Ni335   1.929       .  S
O329        C350   1.272       .  A
O330       Ni353   1.911       .  S
O330        C339   1.268       .  A
O331       Ni335   1.908       .  S
O331       Ni353   1.909   1_554  S
O331       Ni347   1.912       .  S
O331        H354   0.966       .  S
C332        C480   1.478       .  S
C332        O349   1.278   1_556  A
C332        O341   1.274       .  A
O333       Ni352   1.920       .  S
O333        C339   1.266       .  A
O334       Ni352   1.897       .  S
O334        C336   1.265       .  A
Ni335       O338   1.923       .  S
Ni335       O340   1.903       .  S
C336        C497   1.486       .  S
C336        O346   1.272   1_556  A
O337       Ni353   1.910       .  S
O337        C343   1.273   1_556  A
O338        C343   1.276       .  A
C339        C382   1.481       .  S
O340        C342   1.268       .  A
O341       Ni352   1.911       .  S
C342        C466   1.487       .  S
C342        O348   1.271   1_554  A
C343        C511   1.489       .  S
H344        O345   0.966       .  S
O345       Ni353   1.908       .  S
O345       Ni347   1.904   1_556  S
O345       Ni352   1.907       .  S
O346       Ni347   1.924       .  S
Ni347       O351   1.911       .  S
Ni347       O349   1.925       .  S
O348       Ni353   1.926       .  S
C350        C396   1.488       .  S
C350        O351   1.269       .  A
O355       Ni361   1.927       .  S
O355        C376   1.268       .  A
O356       Ni379   1.908       .  S
O356        C365   1.267       .  A
O357       Ni361   1.919       .  S
O357       Ni379   1.912       .  S
O357       Ni373   1.908       .  S
O357        H380   0.968       .  S
C358        C427   1.488       .  S
C358        O375   1.272       .  A
C358        O367   1.272       .  A
O359       Ni378   1.928       .  S
O359        C365   1.271       .  A
O360       Ni378   1.902       .  S
O360        C362   1.269       .  A
Ni361       O364   1.921       .  S
Ni361       O366   1.902       .  S
C362        C441   1.493       .  S
C362        O372   1.274       .  A
O363       Ni379   1.916       .  S
O363        C369   1.273       .  A
O364        C369   1.276       .  A
C365        C399   1.486       .  S
O366        C368   1.266       .  A
O367       Ni378   1.921       .  S
C368        C413   1.476       .  S
C368        O374   1.270       .  A
C369        C455   1.491       .  S
H370        O371   0.963       .  S
O371       Ni379   1.911       .  S
O371       Ni373   1.913       .  S
O371       Ni378   1.913       .  S
O372       Ni373   1.938       .  S
Ni373       O377   1.908       .  S
Ni373       O375   1.909       .  S
O374       Ni379   1.919       .  S
C376        C385   1.481       .  S
C376        O377   1.268       .  A
C381        C382   1.402       .  A
C381        C386   1.399       .  A
C381        H388   1.083       .  S
C382        C383   1.415       .  A
C383        C384   1.398       .  A
C383        N390   1.429       .  S
C384        C385   1.401       .  A
C384        H389   1.082       .  S
C385        C386   1.414       .  A
C386        N387   1.428       .  S
N387        O391   1.262       .  A
N387        O392   1.262       .  A
N390        O394   1.262       .  A
N390        O393   1.262       .  A
C395        C396   1.408       .  A
C395        C400   1.402       .  A
C395        H402   1.084       .  S
C396        C397   1.412       .  A
C397        C398   1.400       .  A
C397        N404   1.429       .  S
C398        C399   1.407       .  A
C398        H403   1.084       .  S
C399        C400   1.413       .  A
C400        N401   1.433       .  S
N401        O405   1.262       .  A
N401        O406   1.262       .  A
N404        O408   1.262       .  A
N404        O407   1.262       .  A
C409        C410   1.399       .  A
C409        C414   1.398       .  A
C409        H416   1.084       .  S
C410        C411   1.406       .  A
C411        C412   1.397       .  A
C411        N418   1.428       .  S
C412        C413   1.405       .  A
C412        H417   1.084       .  S
C413        C414   1.413       .  A
C414        N415   1.429       .  S
N415        O419   1.262       .  A
N415        O420   1.262       .  A
N418        O422   1.262       .  A
N418        O421   1.262       .  A
C423        C424   1.394       .  A
C423        C428   1.392       .  A
C423        H430   1.084       .  S
C424        C425   1.404       .  A
C425        C426   1.402       .  A
C425        N432   1.429       .  S
C426        C427   1.411       .  A
C426        H431   1.083       .  S
C427        C428   1.420       .  A
C428        N429   1.429       .  S
N429        O433   1.262       .  A
N429        O434   1.262       .  A
N432        O436   1.262       .  A
N432        O435   1.262       .  A
C437        C438   1.398       .  A
C437        C442   1.400       .  A
C437        H444   1.084       .  S
C438        C439   1.404       .  A
C439        C440   1.399       .  A
C439        N446   1.429       .  S
C440        C441   1.412       .  A
C440        H445   1.083       .  S
C441        C442   1.419       .  A
C442        N443   1.428       .  S
N443        O447   1.262       .  A
N443        O448   1.262       .  A
N446        O450   1.262       .  A
N446        O449   1.262       .  A
C451        C452   1.398       .  A
C451        C456   1.402       .  A
C451        H458   1.084       .  S
C452        C453   1.403       .  A
C453        C454   1.396       .  A
C453        N460   1.430       .  S
C454        C455   1.410       .  A
C454        H459   1.083       .  S
C455        C456   1.420       .  A
C456        N457   1.429       .  S
N457        O461   1.262       .  A
N457        O462   1.261       .  A
N460        O464   1.262       .  A
N460        O463   1.262       .  A
C465        C466   1.410       .  A
C465        C470   1.398       .  A
C465        H472   1.083       .  S
C466        C467   1.418   1_554  A
C467        C468   1.398       .  A
C467        N474   1.429       .  S
C468        C469   1.397   1_556  A
C468        H473   1.084       .  S
C469        C470   1.403       .  A
C470        N471   1.430       .  S
N471        O475   1.262       .  A
N471        O476   1.262       .  A
N474        O478   1.262       .  A
N474        O477   1.262       .  A
C479        C480   1.404   1_554  A
C479        C484   1.403       .  A
C479        H486   1.084       .  S
C480        C481   1.415       .  A
C481        C482   1.394       .  A
C481        N488   1.429       .  S
C482        C483   1.398       .  A
C482        H487   1.084       .  S
C483        C484   1.410   1_556  A
C484        N485   1.428       .  S
N485        O489   1.262       .  A
N485        O490   1.261       .  A
N488        O492   1.261       .  A
N488        O491   1.262       .  A
C493        C494   1.395       .  A
C493        C498   1.396       .  A
C493        H500   1.084       .  S
C494        C495   1.403   1_556  A
C495        C496   1.397       .  A
C495        N502   1.429       .  S
C496        C497   1.409   1_554  A
C496        H501   1.083       .  S
C497        C498   1.421       .  A
C498        N499   1.429       .  S
N499        O503   1.261       .  A
N499        O504   1.261       .  A
N502        O506   1.262       .  A
N502        O505   1.262       .  A
C507        C508   1.399   1_556  A
C507        C512   1.402       .  A
C507        H514   1.084       .  S
C508        C509   1.402       .  A
C509        C510   1.394       .  A
C509        N516   1.430       .  S
C510        C511   1.410       .  A
C510        H515   1.083       .  S
C511        C512   1.419   1_554  A
C512        N513   1.429       .  S
N513        O517   1.262       .  A
N513        O518   1.262       .  A
N516        O520   1.262       .  A
N516        O519   1.262       .  A
N521        C526   1.351   1_554  A
N521        C785   1.351   1_554  A
N521        H553   1.037       .  S
N522        C530   1.348       .  A
N523        C788   1.352   1_545  A
N523        C527   1.350   1_554  A
N523        H554   1.040       .  S
N524        C531   1.350       .  A
C525        N781   1.352   1_545  A
C525        C533   1.385       .  A
C525        C541   1.410       .  A
C526        C542   1.412   1_556  A
C526        C534   1.388       .  A
C527        C535   1.386       .  A
C527        C544   1.409       .  A
C528        N783   1.351   1_556  A
C528        C543   1.412   1_556  A
C528        C536   1.388       .  A
C529        C541   1.409       .  A
C529        C537   1.386       .  A
C530        C544   1.408       .  A
C530        C538   1.386   1_556  A
C531        C539   1.386       .  A
C531        C542   1.412       .  A
C532        C540   1.387       .  A
C532        C543   1.412       .  A
C533        C794   1.374   1_545  A
C533        H545   1.082       .  S
C534        C793   1.374       .  A
C534        H546   1.082       .  S
C535        C796   1.375   1_545  A
C535        H547   1.082       .  S
C536        C795   1.374       .  A
C536        H548   1.082       .  S
C537        H549   1.082   1_556  S
C538        H550   1.083       .  S
C539        H551   1.082       .  S
C540        H552   1.082       .  S
C541        C768   1.479       .  S
C542        C729   1.479       .  S
C543        C743   1.482       .  S
C544        C754   1.474       .  S
N555        C820   1.350       .  A
N555        C559   1.351       .  A
N555        H587   1.036       .  S
N556        C563   1.349       .  A
N557        C562   1.353       .  A
N557        C821   1.353   1_545  A
N557        H588   1.037       .  S
N558        C566   1.351   1_455  A
C559        C567   1.388       .  A
C559        C575   1.413       .  A
C560        N815   1.350   1_545  A
C560        C576   1.412       .  A
C560        C568   1.387       .  A
C561        N817   1.352       .  A
C561        C569   1.388       .  A
C561        C578   1.413       .  A
C562        C577   1.414       .  A
C562        C570   1.387       .  A
C563        C575   1.409       .  A
C563        C571   1.386       .  A
C564        C578   1.409       .  A
C564        C572   1.386       .  A
C565        C573   1.387       .  A
C565        C576   1.414       .  A
C566        C574   1.386       .  A
C566        C577   1.412       .  A
C567        C828   1.375       .  A
C567        H579   1.082       .  S
C568        C827   1.375   1_545  A
C568        H580   1.082       .  S
C569        C830   1.373       .  A
C569        H581   1.082       .  S
C570        C829   1.373   1_545  A
C570        H582   1.082       .  S
C571        H583   1.082       .  S
C572        H584   1.082       .  S
C573        H585   1.082       .  S
C574        H586   1.082       .  S
C575        C670   1.477       .  S
C576        C712   1.480       .  S
C577        C698   1.483       .  S
C578        C684   1.477       .  S
O589       Ni595   1.930       .  S
O589        C610   1.271       .  A
O590       Ni613   1.907       .  S
O590        C599   1.266       .  A
O591       Ni595   1.918       .  S
O591       Ni613   1.913   1_554  S
O591       Ni607   1.908       .  S
O591        H614   0.966       .  S
C592        C740   1.475       .  S
C592        O609   1.272   1_556  A
C592        O601   1.272       .  A
O593       Ni612   1.920       .  S
O593        C599   1.267       .  A
O594       Ni612   1.894       .  S
O594        C596   1.265       .  A
Ni595       O598   1.923       .  S
Ni595       O600   1.904       .  S
C596        C757   1.481       .  S
C596        O606   1.272   1_556  A
O597       Ni613   1.909       .  S
O597        C603   1.271   1_556  A
O598        C603   1.275       .  A
C599        C642   1.478       .  S
O600        C602   1.269       .  A
O601       Ni612   1.915       .  S
C602        C726   1.488       .  S
C602        O608   1.271   1_554  A
C603        C771   1.488   1_554  S
H604        O605   0.966       .  S
O605       Ni613   1.910       .  S
O605       Ni607   1.913   1_556  S
O605       Ni612   1.919       .  S
O606       Ni607   1.925       .  S
Ni607       O611   1.904       .  S
Ni607       O609   1.909       .  S
O608       Ni613   1.928       .  S
C610        C656   1.486       .  S
C610        O611   1.266       .  A
O615       Ni621   1.927       .  S
O615        C636   1.267       .  A
O616       Ni639   1.907       .  S
O616        C625   1.268       .  A
O617       Ni621   1.917       .  S
O617       Ni639   1.910       .  S
O617       Ni633   1.910       .  S
O617        H640   0.968       .  S
C618        C687   1.489       .  S
C618        O635   1.273       .  A
C618        O627   1.273       .  A
O619       Ni638   1.929       .  S
O619        C625   1.272       .  A
O620       Ni638   1.903       .  S
O620        C622   1.269       .  A
Ni621       O624   1.919       .  S
Ni621       O626   1.901       .  S
C622        C701   1.493       .  S
C622        O632   1.274       .  A
O623       Ni639   1.920       .  S
O623        C629   1.275       .  A
O624        C629   1.276       .  A
C625        C659   1.485       .  S
O626        C628   1.266       .  A
O627       Ni638   1.923       .  S
C628        C673   1.474       .  S
C628        O634   1.269       .  A
C629        C715   1.493       .  S
H630        O631   0.963       .  S
O631       Ni639   1.911       .  S
O631       Ni633   1.909       .  S
O631       Ni638   1.910       .  S
O632       Ni633   1.937       .  S
Ni633       O637   1.905       .  S
Ni633       O635   1.911       .  S
O634       Ni639   1.916       .  S
C636        C645   1.479       .  S
C636        O637   1.268       .  A
C641        C642   1.402       .  A
C641        C646   1.400       .  A
C641        H648   1.083       .  S
C642        C643   1.414       .  A
C643        C644   1.395       .  A
C643        N650   1.429       .  S
C644        C645   1.400       .  A
C644        H649   1.082       .  S
C645        C646   1.414       .  A
C646        N647   1.428       .  S
N647        O651   1.262       .  A
N647        O652   1.262       .  A
N650        O654   1.262       .  A
N650        O653   1.262       .  A
C655        C656   1.407       .  A
C655        C660   1.402       .  A
C655        H662   1.084       .  S
C656        C657   1.412       .  A
C657        C658   1.399       .  A
C657        N664   1.429       .  S
C658        C659   1.406       .  A
C658        H663   1.084       .  S
C659        C660   1.414       .  A
C660        N661   1.432       .  S
N661        O665   1.262       .  A
N661        O666   1.262       .  A
N664        O668   1.262       .  A
N664        O667   1.262       .  A
C669        C670   1.398       .  A
C669        C674   1.396       .  A
C669        H676   1.084       .  S
C670        C671   1.406       .  A
C671        C672   1.397       .  A
C671        N678   1.428       .  S
C672        C673   1.404       .  A
C672        H677   1.084       .  S
C673        C674   1.413       .  A
C674        N675   1.428       .  S
N675        O679   1.262       .  A
N675        O680   1.262       .  A
N678        O682   1.262       .  A
N678        O681   1.262       .  A
C683        C684   1.394       .  A
C683        C688   1.393       .  A
C683        H690   1.084       .  S
C684        C685   1.404       .  A
C685        C686   1.402       .  A
C685        N692   1.429       .  S
C686        C687   1.411       .  A
C686        H691   1.083       .  S
C687        C688   1.420       .  A
C688        N689   1.429       .  S
N689        O693   1.262       .  A
N689        O694   1.262       .  A
N692        O696   1.262       .  A
N692        O695   1.262       .  A
C697        C698   1.398       .  A
C697        C702   1.401       .  A
C697        H704   1.084       .  S
C698        C699   1.404       .  A
C699        C700   1.399       .  A
C699        N706   1.429       .  S
C700        C701   1.411       .  A
C700        H705   1.083       .  S
C701        C702   1.419       .  A
C702        N703   1.428       .  S
N703        O707   1.262       .  A
N703        O708   1.262       .  A
N706        O710   1.262       .  A
N706        O709   1.262       .  A
C711        C712   1.398       .  A
C711        C716   1.403       .  A
C711        H718   1.084       .  S
C712        C713   1.403       .  A
C713        C714   1.396       .  A
C713        N720   1.430       .  S
C714        C715   1.411       .  A
C714        H719   1.083       .  S
C715        C716   1.420       .  A
C716        N717   1.429       .  S
N717        O721   1.262       .  A
N717        O722   1.261       .  A
N720        O724   1.262       .  A
N720        O723   1.262       .  A
C725        C726   1.410       .  A
C725        C730   1.399       .  A
C725        H732   1.083       .  S
C726        C727   1.418   1_554  A
C727        C728   1.398       .  A
C727        N734   1.428       .  S
C728        C729   1.397   1_556  A
C728        H733   1.084       .  S
C729        C730   1.403       .  A
C730        N731   1.429       .  S
N731        O735   1.262       .  A
N731        O736   1.262       .  A
N734        O738   1.262       .  A
N734        O737   1.262       .  A
C739        C740   1.404   1_554  A
C739        C744   1.400       .  A
C739        H746   1.084       .  S
C740        C741   1.414       .  A
C741        C742   1.393       .  A
C741        N748   1.428       .  S
C742        C743   1.398   1_556  A
C742        H747   1.084       .  S
C743        C744   1.409       .  A
C744        N745   1.429       .  S
N745        O749   1.262       .  A
N745        O750   1.262       .  A
N748        O752   1.262       .  A
N748        O751   1.262       .  A
C753        C754   1.396       .  A
C753        C758   1.395       .  A
C753        H760   1.084       .  S
C754        C755   1.404   1_556  A
C755        C756   1.397       .  A
C755        N762   1.429       .  S
C756        C757   1.408   1_554  A
C756        H761   1.084       .  S
C757        C758   1.419       .  A
C758        N759   1.429       .  S
N759        O763   1.261       .  A
N759        O764   1.262       .  A
N762        O766   1.262       .  A
N762        O765   1.262       .  A
C767        C768   1.400       .  A
C767        C772   1.403       .  A
C767        H774   1.084       .  S
C768        C769   1.402   1_556  A
C769        C770   1.394       .  A
C769        N776   1.430       .  S
C770        C771   1.409   1_554  A
C770        H775   1.083       .  S
C771        C772   1.418       .  A
C772        N773   1.429       .  S
N773        O777   1.262       .  A
N773        O778   1.262       .  A
N776        O780   1.262       .  A
N776        O779   1.262       .  A
N781        C786   1.350       .  A
N781        H813   1.037   1_556  S
N782        C790   1.350       .  A
N783        C787   1.351   1_554  A
N783        H814   1.040       .  S
N784        C791   1.350       .  A
C785        C793   1.386       .  A
C785        C801   1.410       .  A
C786        C802   1.413   1_556  A
C786        C794   1.388       .  A
C787        C795   1.385       .  A
C787        C804   1.407       .  A
C788        C803   1.413       .  A
C788        C796   1.388   1_554  A
C789        C801   1.409       .  A
C789        C797   1.386   1_556  A
C790        C804   1.408       .  A
C790        C798   1.386   1_556  A
C791        C799   1.387       .  A
C791        C802   1.413       .  A
C792        C800   1.386       .  A
C792        C803   1.410       .  A
C793        H805   1.082       .  S
C794        H806   1.082       .  S
C795        H807   1.082       .  S
C796        H808   1.082       .  S
C797        H809   1.082       .  S
C798        H810   1.082       .  S
C799        H811   1.082       .  S
C800        H812   1.082       .  S
C801       C1028   1.477       .  S
C802        C989   1.479       .  S
C803       C1003   1.483       .  S
C804       C1014   1.477       .  S
N815        C819   1.352       .  A
N815        H847   1.036       .  S
N816        C823   1.349       .  A
N817        C822   1.352       .  A
N817        H848   1.037       .  S
N818        C826   1.351   1_455  A
C819        C827   1.387       .  A
C819        C835   1.414       .  A
C820        C836   1.410       .  A
C820        C828   1.387       .  A
C821        C829   1.388       .  A
C821        C838   1.415       .  A
C822        C837   1.412       .  A
C822        C830   1.387       .  A
C823        C835   1.409       .  A
C823        C831   1.386       .  A
C824        C838   1.410       .  A
C824        C832   1.386       .  A
C825        C833   1.386       .  A
C825        C836   1.413       .  A
C826        C834   1.385       .  A
C826        C837   1.411       .  A
C827        H839   1.082       .  S
C828        H840   1.082       .  S
C829        H841   1.082       .  S
C830        H842   1.082       .  S
C831        H843   1.082       .  S
C832        H844   1.082       .  S
C833        H845   1.082       .  S
C834        H846   1.082       .  S
C835        C930   1.478       .  S
C836        C972   1.480       .  S
C837        C958   1.482       .  S
C838        C944   1.479       .  S
O849       Ni855   1.927       .  S
O849        C870   1.270       .  A
O850       Ni873   1.906       .  S
O850        C859   1.267       .  A
O851       Ni855   1.919       .  S
O851       Ni873   1.909   1_554  S
O851       Ni867   1.902       .  S
O851        H874   0.966       .  S
C852       C1000   1.481   1_556  S
C852        O869   1.269   1_556  A
C852        O861   1.268       .  A
O853       Ni872   1.910       .  S
O853        C859   1.265       .  A
O854       Ni872   1.891       .  S
O854        C856   1.266       .  A
Ni855       O858   1.920       .  S
Ni855       O860   1.904       .  S
C856       C1017   1.482       .  S
C856        O866   1.276   1_556  A
O857       Ni873   1.910       .  S
O857        C863   1.272   1_556  A
O858        C863   1.274       .  A
C859        C902   1.474       .  S
O860        C862   1.268       .  A
O861       Ni872   1.916       .  S
C862        C986   1.490       .  S
C862        O868   1.271   1_554  A
C863       C1031   1.486       .  S
H864        O865   0.966       .  S
O865       Ni873   1.921       .  S
O865       Ni867   1.917   1_556  S
O865       Ni872   1.921       .  S
O866       Ni867   1.942       .  S
Ni867       O871   1.903       .  S
Ni867       O869   1.906       .  S
O868       Ni873   1.929       .  S
C870        C916   1.484       .  S
C870        O871   1.266       .  A
O875       Ni881   1.927       .  S
O875        C896   1.268       .  A
O876       Ni899   1.905       .  S
O876        C885   1.267       .  A
O877       Ni881   1.918       .  S
O877       Ni899   1.909       .  S
O877       Ni893   1.910       .  S
O877        H900   0.969       .  S
C878        C947   1.489       .  S
C878        O895   1.273       .  A
C878        O887   1.272       .  A
O879       Ni898   1.925       .  S
O879        C885   1.271       .  A
O880       Ni898   1.900       .  S
O880        C882   1.269       .  A
Ni881       O884   1.922       .  S
Ni881       O886   1.903       .  S
C882        C961   1.491       .  S
C882        O892   1.275       .  A
O883       Ni899   1.917       .  S
O883        C889   1.274       .  A
O884        C889   1.276       .  A
C885        C919   1.482       .  S
O886        C888   1.266       .  A
O887       Ni898   1.922       .  S
C888        C933   1.475       .  S
C888        O894   1.269       .  A
C889        C975   1.493       .  S
H890        O891   0.963       .  S
O891       Ni899   1.912       .  S
O891       Ni893   1.909       .  S
O891       Ni898   1.909       .  S
O892       Ni893   1.942       .  S
Ni893       O897   1.904       .  S
Ni893       O895   1.913       .  S
O894       Ni899   1.915       .  S
C896        C905   1.478       .  S
C896        O897   1.268       .  A
C901        C902   1.400       .  A
C901        C906   1.399       .  A
C901        H908   1.083       .  S
C902        C903   1.412       .  A
C903        C904   1.395       .  A
C903        N910   1.429       .  S
C904        C905   1.401       .  A
C904        H909   1.082       .  S
C905        C906   1.415       .  A
C906        N907   1.428       .  S
N907        O911   1.262       .  A
N907        O912   1.262       .  A
N910        O914   1.262       .  A
N910        O913   1.262       .  A
C915        C916   1.408       .  A
C915        C920   1.402       .  A
C915        H922   1.084       .  S
C916        C917   1.412       .  A
C917        C918   1.397       .  A
C917        N924   1.429       .  S
C918        C919   1.405       .  A
C918        H923   1.084       .  S
C919        C920   1.413       .  A
C920        N921   1.432       .  S
N921        O925   1.262       .  A
N921        O926   1.262       .  A
N924        O928   1.262       .  A
N924        O927   1.262       .  A
C929        C930   1.398       .  A
C929        C934   1.397       .  A
C929        H936   1.084       .  S
C930        C931   1.406       .  A
C931        C932   1.397       .  A
C931        N938   1.428       .  S
C932        C933   1.404       .  A
C932        H937   1.084       .  S
C933        C934   1.413       .  A
C934        N935   1.428       .  S
N935        O939   1.262       .  A
N935        O940   1.262       .  A
N938        O942   1.262       .  A
N938        O941   1.262       .  A
C943        C944   1.394       .  A
C943        C948   1.393       .  A
C943        H950   1.084       .  S
C944        C945   1.405       .  A
C945        C946   1.404       .  A
C945        N952   1.429       .  S
C946        C947   1.410       .  A
C946        H951   1.083       .  S
C947        C948   1.421       .  A
C948        N949   1.429       .  S
N949        O953   1.262       .  A
N949        O954   1.262       .  A
N952        O956   1.262       .  A
N952        O955   1.262       .  A
C957        C958   1.399       .  A
C957        C962   1.401       .  A
C957        H964   1.084       .  S
C958        C959   1.404       .  A
C959        C960   1.399       .  A
C959        N966   1.429       .  S
C960        C961   1.411       .  A
C960        H965   1.083       .  S
C961        C962   1.417       .  A
C962        N963   1.428       .  S
N963        O967   1.262       .  A
N963        O968   1.261       .  A
N966        O970   1.262       .  A
N966        O969   1.262       .  A
C971        C972   1.397       .  A
C971        C976   1.402       .  A
C971        H978   1.084       .  S
C972        C973   1.403       .  A
C973        C974   1.397       .  A
C973        N980   1.430       .  S
C974        C975   1.410       .  A
C974        H979   1.083       .  S
C975        C976   1.420       .  A
C976        N977   1.429       .  S
N977        O981   1.262       .  A
N977        O982   1.261       .  A
N980        O984   1.262       .  A
N980        O983   1.262       .  A
C985        C986   1.410       .  A
C985        C990   1.399       .  A
C985        H992   1.083       .  S
C986        C987   1.419   1_554  A
C987        C988   1.398       .  A
C987        N994   1.428       .  S
C988        C989   1.397   1_556  A
C988        H993   1.084       .  S
C989        C990   1.404       .  A
C990        N991   1.429       .  S
N991        O995   1.262       .  A
N991        O996   1.262       .  A
N994        O998   1.262       .  A
N994        O997   1.262       .  A
C999       C1000   1.406       .  A
C999       C1004   1.400       .  A
C999       H1006   1.084       .  S
C1000      C1001   1.417   1_554  A
C1001      C1002   1.394       .  A
C1001      N1008   1.429       .  S
C1002      C1003   1.398   1_556  A
C1002      H1007   1.084       .  S
C1003      C1004   1.407       .  A
C1004      N1005   1.428       .  S
N1005      O1009   1.262       .  A
N1005      O1010   1.262       .  A
N1008      O1012   1.262       .  A
N1008      O1011   1.262       .  A
C1013      C1014   1.396       .  A
C1013      C1018   1.396       .  A
C1013      H1020   1.084       .  S
C1014      C1015   1.405   1_556  A
C1015      C1016   1.399       .  A
C1015      N1022   1.429       .  S
C1016      C1017   1.407   1_554  A
C1016      H1021   1.084       .  S
C1017      C1018   1.419       .  A
C1018      N1019   1.429       .  S
N1019      O1023   1.262       .  A
N1019      O1024   1.262       .  A
N1022      O1026   1.262       .  A
N1022      O1025   1.262       .  A
C1027      C1028   1.400       .  A
C1027      C1032   1.402       .  A
C1027      H1034   1.084       .  S
C1028      C1029   1.402   1_556  A
C1029      C1030   1.394       .  A
C1029      N1036   1.430       .  S
C1030      C1031   1.410       .  A
C1030      H1035   1.083       .  S
C1031      C1032   1.417   1_554  A
C1032      N1033   1.429       .  S
N1033      O1037   1.262       .  A
N1033      O1038   1.262       .  A
N1036      O1040   1.262       .  A
N1036      O1039   1.262       .  A
