geometry optimzed in LAMMPS
_audit_creation_date              2020-11-30 
_audit_creation_method            'lammps2cif' 
_symmetry_space_group_name_H-M    'P1' 
_symmetry_Int_Tables_number       1 
_symmetry_cell_setting            triclinic 
loop_ 
_symmetry_equiv_pos_as_xyz 
  x,y,z 
_cell_length_a                    30.15937626 
_cell_length_b                    30.08303445917149 
_cell_length_c                    41.84864125376203 
_cell_angle_alpha                 89.1645132950855 
_cell_angle_beta                  90.58055842421761 
_cell_angle_gamma                 119.91227208460532 
loop_ 
_atom_site_label 
_atom_site_type_symbol 
_atom_site_fract_x 
_atom_site_fract_y 
_atom_site_fract_z 
_atom_site_charge 
Fe1        Fe  0.36794170  0.63100846  0.25157269     1.65800
Fe2        Fe  0.25759059  0.63495096  0.25317793     1.73200
Fe3        Fe  0.37090612  0.74522760  0.24638086     1.54400
O4          O  0.43237742  0.75289545  0.27370411    -0.82600
O5          O  0.25085923  0.66962265  0.21187066    -0.81000
O6          O  0.41453734  0.67426290  0.28852946    -0.85200
O7          O  0.42269797  0.67882302  0.21873541    -0.80000
O8          O  0.33802332  0.75420523  0.28732802    -0.81800
O9          O  0.24789864  0.57341044  0.22617868    -0.84500
C10         C  0.43102507  0.71762959  0.20179055     0.96200
C11         C  0.44170367  0.72271278  0.29023647     1.03700
O12         O  0.33212921  0.67031393  0.25027691    -1.13500
O13         O  0.25719245  0.59685696  0.29488143    -0.75900
O14         O  0.31839930  0.57811393  0.28459435    -0.79400
O15         O  0.40680062  0.74175254  0.20536989    -0.80100
C16         C  0.27966770  0.57131613  0.30031876     0.95100
O17         O  0.32414685  0.58312448  0.21502321    -0.78100
O18         O  0.25724002  0.69174886  0.28056653    -0.83300
C19         C  0.27330533  0.71725931  0.20543217     0.97800
C20         C  0.29059851  0.73293794  0.29373783     1.03700
O21         O  0.31539900  0.74932612  0.21841130    -0.78900
C22         C  0.27564947  0.55860870  0.21248568     1.02000
C23         C  0.37801242  0.19825473  0.12542125     0.85500
C24         C  0.34786849  0.14006329  0.13139739    -0.54700
C25         C  0.30528183  0.11390060  0.11280454     0.08400
C26         C  0.29517711  0.14909145  0.09033312     0.19400
C27         C  0.38773899  0.20357525  0.08899388    -0.55400
C28         C  0.34476880  0.17788478  0.07091804     0.08500
C29         C  0.33893174  0.21616282  0.12987000    -0.55000
C30         C  0.29536322  0.19082868  0.11177956     0.09100
H31         H  0.36014672  0.12103393  0.14862483     0.13600
H32         H  0.26036357  0.12802073  0.07535644    -0.00600
H33         H  0.42432373  0.22515343  0.07731353     0.13900
H34         H  0.34582963  0.24736486  0.14563364     0.13700
C35         C  0.82192292  0.61538602  0.37474019     0.85500
C36         C  0.88007552  0.65309794  0.37153359    -0.54700
C37         C  0.89821344  0.69587986  0.38990726     0.08400
C38         C  0.85650421  0.69768786  0.40982656     0.19400
C39         C  0.81432552  0.60437017  0.41082756    -0.55400
C40         C  0.83228129  0.64704615  0.42923226     0.08500
C41         C  0.79769798  0.64866805  0.36714400    -0.55000
C42         C  0.81476712  0.69113397  0.38566174     0.09100
H43         H  0.90634199  0.64734828  0.35720681     0.13600
H44         H  0.87091175  0.73252788  0.42467374    -0.00600
H45         H  0.79539134  0.56581503  0.42087427     0.13900
H46         H  0.76744180  0.63805924  0.34952836     0.13700
C47         C  0.38543456  0.20036182  0.38122605     0.85500
C48         C  0.35246384  0.22587907  0.37456341    -0.54700
C49         C  0.30870914  0.20597325  0.39229157     0.08400
C50         C  0.30119403  0.16191039  0.41462931     0.19400
C51         C  0.39418516  0.20454668  0.41742523    -0.55400
C52         C  0.35045605  0.18472685  0.43480105     0.08500
C53         C  0.34750920  0.14334515  0.37502990    -0.55000
C54         C  0.30329448  0.12202012  0.39275431     0.09100
H55         H  0.36263535  0.25749081  0.35799870     0.13600
H56         H  0.26615844  0.14809609  0.42884955    -0.00600
H57         H  0.43186609  0.22189202  0.42841825     0.13900
H58         H  0.35538294  0.12170295  0.35779465     0.13700
C59         C  0.20040237  0.82287509  0.37578178     0.85500
C60         C  0.22068801  0.88021275  0.36938154    -0.54700
C61         C  0.19632099  0.90087457  0.38577159     0.08400
C62         C  0.15449767  0.86172337  0.40843694     0.19400
C63         C  0.20508882  0.81911074  0.41241822    -0.55400
C64         C  0.18155587  0.83990276  0.42930198     0.08500
C65         C  0.14204758  0.79638140  0.37036898    -0.55000
C66         C  0.11819731  0.81711653  0.38703945     0.09100
H67         H  0.25363300  0.90278140  0.35427248     0.13600
H68         H  0.13402510  0.87689254  0.42245366    -0.00600
H69         H  0.22311783  0.80026251  0.42461475     0.13900
H70         H  0.12111180  0.76281771  0.35550506     0.13700
C71         C  0.17949942  0.80620320  0.12208007     0.85500
C72         C  0.12278483  0.78781131  0.12813933    -0.54700
C73         C  0.10375194  0.81390976  0.11120246     0.08400
C74         C  0.14340480  0.85587065  0.08880988     0.19400
C75         C  0.18231422  0.80201421  0.08535848    -0.55400
C76         C  0.16327949  0.82773720  0.06822348     0.08500
C77         C  0.20733637  0.86426656  0.12772448    -0.55000
C78         C  0.18899619  0.89067920  0.11048343     0.09100
H79         H  0.09908064  0.75507457  0.14343830     0.13600
H80         H  0.12835740  0.87651304  0.07417860    -0.00600
H81         H  0.19842071  0.78203414  0.07306463     0.13900
H82         H  0.24015405  0.88316352  0.14359527     0.17700
C83         C  0.80642618  0.61876651  0.12051885     0.85500
C84         C  0.78295470  0.65329822  0.12594158    -0.54700
C85         C  0.80254079  0.69625005  0.10717742     0.08400
C86         C  0.84441398  0.70133556  0.08429714     0.19400
C87         C  0.79781548  0.60786325  0.08444565    -0.55400
C88         C  0.81816747  0.65087844  0.06532317     0.08500
C89         C  0.86417207  0.65435206  0.12441806    -0.55000
C90         C  0.88445446  0.69745397  0.10556409     0.09100
H91         H  0.74942928  0.64254389  0.14041367     0.13600
H92         H  0.86098038  0.73672718  0.06943838    -0.00600
H93         H  0.77720874  0.56943555  0.07478481     0.13900
H94         H  0.88725569  0.64572095  0.14067051     0.13700
C95         C  0.60775559  0.80394078  0.11641804     0.85500
C96         C  0.64351939  0.86158713  0.12140840    -0.54700
C97         C  0.68767702  0.88278570  0.10394774     0.08400
C98         C  0.69204237  0.84365572  0.08280184     0.19400
C99         C  0.59895386  0.79913838  0.07978128    -0.55400
C100        C  0.64317547  0.82017908  0.06250545     0.08500
C101        C  0.64095964  0.77916608  0.12257747    -0.55000
C102        C  0.68451605  0.79932008  0.10478427     0.09100
H103        H  0.63376617  0.88405808  0.13692522     0.13600
H104        H  0.72784936  0.85971497  0.06871836    -0.00600
H105        H  0.56231099  0.77971892  0.06780091     0.13900
H106        H  0.62946203  0.74637934  0.13848007     0.13700
C107        C  0.19253818  0.39419601  0.38716961     0.85500
C108        C  0.13612755  0.35626231  0.38019217    -0.54700
C109        C  0.11580074  0.31228903  0.39801526     0.08400
C110        C  0.15421160  0.30953517  0.42130828     0.19400
C111        C  0.19407006  0.40274277  0.42365591    -0.55400
C112        C  0.17463735  0.35846474  0.44149136     0.08500
C113        C  0.22066703  0.36368860  0.38362107    -0.55000
C114        C  0.20040401  0.31907466  0.40085686     0.09100
H115        H  0.11326798  0.36483178  0.36368968     0.13600
H116        H  0.13747320  0.27330720  0.43548263    -0.00600
H117        H  0.20928270  0.43964018  0.43494479     0.13900
H118        H  0.25435344  0.37662749  0.36878764     0.13700
C119        C  0.81292084  0.17808213  0.37162428     0.85500
C120        C  0.79995246  0.12266892  0.36390890    -0.54700
C121        C  0.82372147  0.10364929  0.38309885     0.08400
C122        C  0.85859863  0.14176051  0.40858287     0.19400
C123        C  0.79903306  0.17427356  0.40740825    -0.55400
C124        C  0.82326120  0.15578180  0.42671729     0.08500
C125        C  0.87171927  0.20936410  0.37077406    -0.55000
C126        C  0.89558198  0.19092495  0.39027765     0.09100
H127        H  0.76995078  0.09743782  0.34776866     0.13600
H128        H  0.87817435  0.12672933  0.42428721    -0.00600
H129        H  0.77331108  0.18635254  0.41675781     0.13900
H130        H  0.89278284  0.24432104  0.35668974     0.13700
C131        C  0.62529659  0.80766151  0.37122547     0.85500
C132        C  0.65809103  0.78309841  0.36432185    -0.54700
C133        C  0.70018026  0.79931336  0.38352277     0.08400
C134        C  0.70726514  0.84110422  0.40729107     0.19400
C135        C  0.61455085  0.79953482  0.40746449    -0.55400
C136        C  0.65687281  0.81623136  0.42624900     0.08500
C137        C  0.66229416  0.86586154  0.36851061    -0.55000
C138        C  0.70549268  0.88357321  0.38695335     0.09100
H139        H  0.64720705  0.75307241  0.34679719     0.13600
H140        H  0.74203833  0.85540158  0.42246145    -0.00600
H141        H  0.57731484  0.78489570  0.41825975     0.13900
H142        H  0.65445063  0.89131340  0.35392589     0.13700
C143        C  0.79007681  0.17963166  0.11788015     0.85500
C144        C  0.84664415  0.20395246  0.12808626    -0.54700
C145        C  0.87388361  0.18571844  0.11246839     0.08400
C146        C  0.84133602  0.14301391  0.08870701     0.19400
C147        C  0.79078376  0.18520579  0.08130452    -0.55400
C148        C  0.81744001  0.16614205  0.06611756     0.08500
C149        C  0.76936924  0.12179142  0.12371748    -0.55000
C150        C  0.79624568  0.10276139  0.10871405     0.09100
H151        H  0.86417658  0.23424203  0.14561859     0.13600
H152        H  0.86277049  0.12769247  0.07582558    -0.00600
H153        H  0.77107861  0.20196609  0.06848264     0.13900
H154        H  0.73642695  0.09690197  0.13810209     0.13700
C155        C  0.17629947  0.37002397  0.13573591     0.85500
C156        C  0.19832259  0.33404210  0.13963641    -0.54700
C157        C  0.17598544  0.29172005  0.12059660     0.08400
C158        C  0.13316840  0.28936478  0.09879653     0.19400
C159        C  0.18013406  0.38260841  0.09962695    -0.55400
C160        C  0.15818943  0.34068682  0.08015683     0.08500
C161        C  0.11830854  0.33476266  0.14104087    -0.55000
C162        C  0.09547919  0.29376475  0.12126510     0.09100
H163        H  0.23038062  0.34251314  0.15535591     0.13600
H164        H  0.11533977  0.25493041  0.08348201    -0.00600
H165        H  0.19864151  0.42161006  0.09027334     0.13900
H166        H  0.09468029  0.34269563  0.15645109     0.13700
Fe167      Fe  0.74064497  0.36241500  0.24558366     1.65800
Fe168      Fe  0.63268988  0.37140569  0.25087935     1.73200
Fe169      Fe  0.62330625  0.25429476  0.25174952     1.54400
O170        O  0.65558427  0.24621519  0.21035335    -0.82600
O171        O  0.57791482  0.32353596  0.28329238    -0.81000
O172        O  0.73588239  0.31128873  0.21125019    -0.85200
O173        O  0.74735644  0.31828042  0.28169889    -0.80000
O174        O  0.56439276  0.25232867  0.22459929    -0.81800
O175        O  0.67886658  0.41481525  0.28800601    -0.84500
C176        C  0.72046226  0.27118290  0.28914477     0.96200
C177        C  0.70095009  0.26948081  0.19944452     1.03700
O178        O  0.66584005  0.32948699  0.24945291    -1.13500
O179        O  0.68157098  0.42574953  0.21893947    -0.75900
O180        O  0.74598219  0.41222426  0.20909237    -0.79400
O181        O  0.67504152  0.24350922  0.27903327    -0.80100
C182        C  0.72297276  0.43746592  0.20489252     0.95100
O183        O  0.75283764  0.41717292  0.27916285    -0.78100
O184        O  0.58454730  0.33291205  0.21345486    -0.83300
C185        C  0.56690353  0.28331439  0.29933192     0.97800
C186        C  0.55665272  0.28497327  0.20979422     1.03700
O187        O  0.58739866  0.25620799  0.29338502    -0.78900
C188        C  0.72651071  0.43335392  0.29321590     1.02000
C189        C  0.71554345  0.24644516  0.17306323    -0.07100
C190        C  0.76029404  0.27813946  0.15563255    -0.18200
C191        C  0.78242665  0.25763333  0.13546507     0.10100
C192        C  0.76154660  0.20363373  0.13423581    -0.07000
C193        C  0.71324683  0.17257472  0.14842754    -0.18300
C194        C  0.68986431  0.19316420  0.16714586     0.10100
S195        S  0.83749121  0.30128347  0.11183442    -0.33200
S196        S  0.62806526  0.14852295  0.18344648    -0.33200
H197        H  0.60506022  0.17610923  0.17130294     0.28100
H198        H  0.83746555  0.34662618  0.11954092     0.28100
H199        H  0.77878647  0.31929416  0.15842915     0.18700
H200        H  0.69216865  0.13177349  0.14482576     0.18700
C201        C  0.93067761  0.21104023  0.11497684    -0.07100
C202        C  0.95828911  0.26461595  0.11185773    -0.18200
C203        C  0.01169279  0.29180180  0.11204805     0.10100
C204        C  0.03890972  0.26527037  0.11734199    -0.07000
C205        C  0.01174551  0.21160125  0.11958487    -0.18300
C206        C  0.95799459  0.18418348  0.11838716     0.10100
S207        S  0.04439933  0.35980618  0.10270459    -0.33200
S208        S  0.92701331  0.11555241  0.12283024    -0.33200
H209        H  0.88598563  0.11142249  0.14056346     0.28100
H210        H  0.00087880  0.36545262  0.10078720     0.28100
H211        H  0.93771611  0.28515161  0.10790740     0.18700
H212        H  0.03246654  0.19107164  0.12312311     0.18700
C213        C  0.74349166  0.24714778  0.30963645    -0.07100
C214        C  0.77201245  0.27299248  0.33664082    -0.18200
C215        C  0.79467062  0.25180752  0.35670424     0.10100
C216        C  0.78812012  0.20243732  0.35024977    -0.07000
C217        C  0.76059047  0.17776636  0.32227194    -0.18300
C218        C  0.73899634  0.19950653  0.30207613     0.10100
S219        S  0.83211366  0.28934821  0.39024786    -0.33200
S220        S  0.70914979  0.16587471  0.26569443    -0.33200
H221        H  0.72851773  0.21028217  0.24638470     0.28100
H222        H  0.83702022  0.33640545  0.38015912     0.28100
H223        H  0.77618585  0.30994324  0.34217680     0.18700
H224        H  0.75723141  0.14228777  0.31451643     0.18700
C225        C  0.81982634  0.15366923  0.46217157    -0.07100
C226        C  0.86560596  0.17942705  0.47953014    -0.18200
C227        C  0.86607030  0.19085059  0.01406428     0.10100
C228        C  0.81959350  0.16410549  0.03087666    -0.07000
C229        C  0.77440749  0.13249251  0.01399689    -0.18300
C230        C  0.77296084  0.12879804  0.47898561     0.10100
S231        S  0.92483001  0.23636892  0.03295376    -0.33200
S232        S  0.71204428  0.09038260  0.45952554    -0.33200
H233        H  0.73083354  0.07649654  0.43318397     0.28100
H234        H  0.90145721  0.25568228  0.05306488     0.28100
H235        H  0.90175872  0.19860887  0.46697191     0.18700
H236        H  0.73867729  0.11115775  0.02686054     0.18700
C237        C  0.80528541  0.04759629  0.38458964    -0.07100
C238        C  0.78726722  0.02217199  0.41395152    -0.18200
C239        C  0.75684101  0.96857188  0.41576601     0.10100
C240        C  0.74473503  0.93925241  0.38762317    -0.07000
C241        C  0.76636322  0.96455919  0.35859012    -0.18300
C242        C  0.79704537  0.01811425  0.35687984     0.10100
S243        S  0.73003473  0.93929796  0.45374354    -0.33200
S244        S  0.82431246  0.04673225  0.31870138    -0.33200
H245        H  0.86611409  0.09121202  0.33125304     0.28100
H246        H  0.74446831  0.98476285  0.47046114     0.28100
H247        H  0.79404138  0.04462772  0.43527501     0.18700
H248        H  0.75829221  0.94245684  0.33692724     0.18700
C249        C  0.17228359  0.35674327  0.47698138    -0.07100
C250        C  0.12624633  0.32055854  0.49117242    -0.18200
C251        C  0.11812621  0.31531497  0.02444342     0.10100
C252        C  0.16057669  0.34530296  0.04452161    -0.07000
C253        C  0.20743258  0.38047611  0.03031361    -0.18300
C254        C  0.21428324  0.38852841  0.49684671     0.10100
S255        S  0.05557359  0.27192030  0.04016633    -0.33200
S256        S  0.27667838  0.43421394  0.48164602    -0.33200
H257        H  0.27493667  0.40458708  0.45548347     0.28100
H258        H  0.03311537  0.24637300  0.01150515     0.28100
H259        H  0.09382716  0.29704717  0.47595396     0.18700
H260        H  0.24058513  0.40302522  0.04526344     0.18700
C261        C  0.95183237  0.21929562  0.39556065    -0.07100
C262        C  0.98171175  0.19859118  0.38491911    -0.18200
C263        C  0.03547793  0.22725697  0.38619585     0.10100
C264        C  0.05970447  0.27714897  0.39896615    -0.07000
C265        C  0.02965189  0.29637638  0.41131964    -0.18300
C266        C  0.97616143  0.26803896  0.40987579     0.10100
S267        S  0.07094525  0.19907190  0.37014965    -0.33200
S268        S  0.93931760  0.29416431  0.42683741    -0.33200
H269        H  0.98087867  0.34077565  0.43716460     0.28100
H270        H  0.11234734  0.24505320  0.35862711     0.28100
H271        H  0.96314385  0.16087124  0.37430272     0.18700
H272        H  0.04846766  0.33429247  0.42163605     0.18700
C273        C  0.72491611  0.93902663  0.10474473    -0.07100
C274        C  0.73630329  0.96323182  0.13456802    -0.18200
C275        C  0.76300988  0.01663863  0.13706047     0.10100
C276        C  0.77901751  0.04721959  0.10894217    -0.07000
C277        C  0.77183296  0.02337234  0.07938275    -0.18300
C278        C  0.74459913  0.96979437  0.07681705     0.10100
S279        S  0.77404380  0.04250681  0.17690863    -0.33200
S280        S  0.73178528  0.94275277  0.03742053    -0.33200
H281        H  0.75092487  0.98895948  0.01996730     0.28100
H282        H  0.81396555  0.09191546  0.16942294     0.28100
H283        H  0.72276891  0.94020658  0.15622545     0.18700
H284        H  0.78448054  0.04697667  0.05795677     0.18700
C285        C  0.65296774  0.81479022  0.46162646    -0.07100
C286        C  0.62324695  0.83338967  0.47558111    -0.18200
C287        C  0.62094299  0.83784476  0.00719918     0.10100
C288        C  0.64452860  0.81779306  0.02744761    -0.07000
C289        C  0.67199273  0.79633669  0.01415406    -0.18300
C290        C  0.67731981  0.79515354  0.48151614     0.10100
S291        S  0.58672224  0.86846578  0.02170183    -0.33200
S292        S  0.71326697  0.76774058  0.46525834    -0.33200
H293        H  0.71025572  0.73875461  0.49261532     0.28100
H294        H  0.61672108  0.88948815  0.04922507     0.28100
H295        H  0.60495333  0.84924127  0.46053645     0.18700
H296        H  0.68990539  0.78087701  0.02984083     0.18700
C297        C  0.78606315  0.57095387  0.14237481    -0.07100
C298        C  0.76100587  0.56923125  0.17101181    -0.18200
C299        C  0.74151332  0.52713326  0.19170919     0.10100
C300        C  0.74583616  0.48386423  0.18405447    -0.07000
C301        C  0.77417473  0.48643405  0.15699993    -0.18300
C302        C  0.79562740  0.52992630  0.13665346     0.10100
S303        S  0.71512053  0.53343169  0.22881340    -0.33200
S304        S  0.83715194  0.53312465  0.10471780    -0.33200
H305        H  0.83478886  0.48597271  0.11115517     0.28100
H306        H  0.73883863  0.51227987  0.24775585     0.28100
H307        H  0.75876785  0.60197431  0.17896272     0.18700
H308        H  0.77972461  0.45435766  0.15194599     0.18700
C309        C  0.77518517  0.72557731  0.10396342    -0.07100
C310        C  0.72262808  0.69764774  0.09712559    -0.18200
C311        C  0.69285848  0.72124933  0.09592413     0.10100
C312        C  0.71581238  0.77409498  0.10245699    -0.07000
C313        C  0.76902236  0.80296026  0.10690789    -0.18300
C314        C  0.79898776  0.77917815  0.10783790     0.10100
S315        S  0.62635739  0.68392870  0.08415835    -0.33200
S316        S  0.86663035  0.81879936  0.11506883    -0.33200
H317        H  0.87217879  0.78188764  0.13287012     0.28100
H318        H  0.62265146  0.63546746  0.08607883     0.28100
H319        H  0.70498347  0.65700360  0.09241445     0.18700
H320        H  0.78698417  0.84385723  0.11089386     0.18700
C321        C  0.04806647  0.79620660  0.11053722    -0.07100
C322        C  0.02340444  0.78590973  0.08079531    -0.18200
C323        C  0.97019051  0.75551198  0.07838233     0.10100
C324        C  0.94022241  0.73598866  0.10632929    -0.07000
C325        C  0.96473891  0.75112368  0.13617182    -0.18300
C326        C  0.01801333  0.78137389  0.13855552     0.10100
S327        S  0.94419398  0.73752732  0.03895406    -0.33200
S328        S  0.04529150  0.80005417  0.17794657    -0.33200
H329        H  0.08965022  0.84480029  0.16782139     0.28100
H330        H  0.92475356  0.68516643  0.04579650     0.28100
H331        H  0.04589549  0.79766931  0.05909892     0.18700
H332        H  0.94225260  0.73846389  0.15787536     0.18700
C333        C  0.17865653  0.83729217  0.46453903    -0.07100
C334        C  0.14066502  0.79199588  0.47889642    -0.18200
C335        C  0.13366140  0.78998711  0.01291741     0.10100
C336        C  0.16574653  0.83144484  0.03291101    -0.07000
C337        C  0.20385037  0.87727427  0.01907791    -0.18300
C338        C  0.21228085  0.87869555  0.48395036     0.10100
S339        S  0.08320277  0.72880928  0.02751604    -0.33200
S340        S  0.26528597  0.93697113  0.46823827    -0.33200
H341        H  0.27263637  0.91570572  0.44052730     0.28100
H342        H  0.08482783  0.74040780  0.05992498     0.28100
H343        H  0.11540189  0.75987058  0.46403256     0.18700
H344        H  0.22911972  0.90877889  0.03437589     0.18700
C345        C  0.43637032  0.22281947  0.36289102    -0.07100
C346        C  0.46019566  0.27423448  0.35227076    -0.18200
C347        C  0.50462775  0.29621411  0.33377653     0.10100
C348        C  0.52642431  0.26613016  0.32439817    -0.07000
C349        C  0.50613349  0.21669854  0.33773077    -0.18300
C350        C  0.46333766  0.19572839  0.35788873     0.10100
S351        S  0.53171236  0.36343843  0.32407747    -0.33200
S352        S  0.44733726  0.13496985  0.37647983    -0.33200
H353        H  0.43180429  0.14448409  0.40580600     0.28100
H354        H  0.58220703  0.37545871  0.33115420     0.28100
H355        H  0.44538602  0.29879412  0.35914530     0.18700
H356        H  0.52371996  0.19383581  0.33244904     0.18700
C357        C  0.27559922  0.22956734  0.39365796    -0.07100
C358        C  0.26500360  0.24182444  0.42382096    -0.18200
C359        C  0.23929203  0.26953760  0.42706595     0.10100
C360        C  0.22275090  0.28478724  0.39947031    -0.07000
C361        C  0.23157678  0.27071480  0.36930096    -0.18300
C362        C  0.25711734  0.24284352  0.36611548     0.10100
S363        S  0.23147578  0.28783641  0.46652951    -0.33200
S364        S  0.26353071  0.22422240  0.32642791    -0.33200
H365        H  0.26219453  0.17852512  0.33595171     0.28100
H366        H  0.26914728  0.28030688  0.48163817     0.28100
H367        H  0.27860329  0.23125845  0.44502920     0.18700
H368        H  0.21845451  0.28164528  0.34797779     0.18700
C369        C  0.26382386  0.06573732  0.39000035    -0.07100
C370        C  0.26012551  0.04192766  0.36054400    -0.18200
C371        C  0.23487285  0.98860191  0.35751734     0.10100
C372        C  0.21326434  0.95694573  0.38484160    -0.07000
C373        C  0.21050665  0.98019146  0.41296933    -0.18300
C374        C  0.23405650  0.03365454  0.41579349     0.10100
S375        S  0.23043920  0.96436895  0.31775793    -0.33200
S376        S  0.22237851  0.05731660  0.45223374    -0.33200
H377        H  0.20767671  0.01329622  0.47132542     0.28100
H378        H  0.18332124  0.91969217  0.32290056     0.28100
H379        H  0.27756973  0.06511468  0.33939022     0.18700
H380        H  0.19115450  0.95659425  0.43351507     0.18700
C381        C  0.79773525  0.56593317  0.35492260    -0.07100
C382        C  0.82719844  0.55611872  0.33322415    -0.18200
C383        C  0.80555068  0.51349491  0.31334231     0.10100
C384        C  0.75266070  0.47732084  0.31543041    -0.07000
C385        C  0.72315451  0.48579214  0.33763296    -0.18300
C386        C  0.74456272  0.52932851  0.35709287     0.10100
S387        S  0.84785318  0.51049634  0.28433178    -0.33200
S388        S  0.70237572  0.53775634  0.38374987    -0.33200
H389        H  0.65846479  0.48962357  0.37913673     0.28100
H390        H  0.81622084  0.50561113  0.25810422     0.28100
H391        H  0.86735644  0.58223679  0.33007003     0.18700
H392        H  0.68261928  0.45857630  0.33925458     0.18700
C393        C  0.82768907  0.64503045  0.46457514    -0.07100
C394        C  0.81095387  0.67592767  0.47874862    -0.18200
C395        C  0.80935742  0.68094885  0.00949228     0.10100
C396        C  0.81844079  0.64831079  0.02978121    -0.07000
C397        C  0.83197582  0.61440045  0.01603886    -0.18300
C398        C  0.83979497  0.61393700  0.48437009     0.10100
S399        S  0.78805091  0.72287155  0.02470001    -0.33200
S400        S  0.86661477  0.57633525  0.46959671    -0.33200
H401        H  0.89456117  0.61010708  0.44453555     0.28100
H402        H  0.80017420  0.75454167  0.99736411     0.28100
H403        H  0.80036297  0.69873306  0.46364976     0.18700
H404        H  0.84042576  0.59015433  0.03132321     0.18700
C405        C  0.95376866  0.73467739  0.39051103    -0.07100
C406        C  0.97874748  0.75408188  0.36120030    -0.18200
C407        C  0.03205747  0.78392147  0.35949593     0.10100
C408        C  0.06168681  0.79410317  0.38760409    -0.07000
C409        C  0.03672380  0.77791244  0.41708605    -0.18300
C410        C  0.98324131  0.74793533  0.41888359     0.10100
S411        S  0.05988414  0.80854063  0.32089271    -0.33200
S412        S  0.95421683  0.72323854  0.45722855    -0.33200
H413        H  0.99954322  0.74423043  0.47541840     0.28100
H414        H  0.10096403  0.85383691  0.33293418     0.28100
H415        H  0.95648596  0.74503008  0.33933019     0.18700
H416        H  0.05943095  0.78652543  0.43864726     0.18700
C417        C  0.78773268  0.72117425  0.38586066    -0.07100
C418        C  0.73456352  0.69384524  0.39022516    -0.18200
C419        C  0.70557753  0.71845852  0.38993883     0.10100
C420        C  0.73012583  0.77216125  0.38494108    -0.07000
C421        C  0.78362367  0.80000957  0.38181274    -0.18300
C422        C  0.81258120  0.77502404  0.38180748     0.10100
S423        S  0.63771433  0.68105932  0.39814283    -0.33200
S424        S  0.88042383  0.81347242  0.37507245    -0.33200
H425        H  0.88456093  0.77625935  0.35747905     0.28100
H426        H  0.63497136  0.63329019  0.40239767     0.28100
H427        H  0.71573274  0.65278824  0.39421476     0.18700
H428        H  0.80273090  0.84122952  0.37836023     0.18700
C429        C  0.51266811  0.26589945  0.18797177    -0.07100
C430        C  0.46347087  0.24006318  0.20097671    -0.18200
C431        C  0.41977071  0.22012504  0.18141667     0.10100
C432        C  0.42514245  0.22503696  0.14756631    -0.07000
C433        C  0.47538667  0.25311046  0.13508524    -0.18300
C434        C  0.51866471  0.27289825  0.15475840     0.10100
S435        S  0.35763658  0.18774518  0.20044365    -0.33200
S436        S  0.58069563  0.30542878  0.13588808    -0.33200
H437        H  0.60548349  0.28960984  0.15810809     0.28100
H438        H  0.37481504  0.20093211  0.23211221     0.28100
H439        H  0.45945264  0.23541734  0.22668787     0.18700
H440        H  0.48271751  0.25965969  0.10993027     0.18700
C441        C  0.27558727  0.05665498  0.11174381    -0.07100
C442        C  0.22185175  0.03143242  0.11191792    -0.18200
C443        C  0.19214945  0.97745289  0.11140940     0.10100
C444        C  0.21675710  0.94799290  0.10978084    -0.07000
C445        C  0.27035714  0.97349729  0.10827989    -0.18300
C446        C  0.30002488  0.02693853  0.10952565     0.10100
S447        S  0.12346958  0.94700857  0.11492948    -0.33200
S448        S  0.36886886  0.05598169  0.10615094    -0.33200
H449        H  0.37062655  0.01091596  0.10050000     0.28100
H450        H  0.12091576  0.99209240  0.11853779     0.28100
H451        H  0.20323417  0.05417406  0.11334224     0.18700
H452        H  0.28923530  0.95112953  0.10601893     0.18700
C453        C  0.34731543  0.18015620  0.03573117    -0.07100
C454        C  0.36304771  0.22751073  0.02046543    -0.18200
C455        C  0.36814438  0.22931216  0.48827203     0.10100
C456        C  0.35031896  0.18443274  0.46999592    -0.07000
C457        C  0.33170372  0.13710330  0.48552689    -0.18300
C458        C  0.33795364  0.13738991  0.01747292     0.10100
S459        S  0.39505632  0.29292952  0.47106733    -0.33200
S460        S  0.31951534  0.07617849  0.03579407    -0.33200
H461        H  0.31523467  0.04934684  0.00763959     0.28100
H462        H  0.37430681  0.27913089  0.44030049     0.28100
H463        H  0.37156992  0.26075948  0.03462684     0.18700
H464        H  0.32190008  0.10362030  0.47140598     0.18700
C465        C  0.25491516  0.20593108  0.11283244    -0.07100
C466        C  0.23968822  0.21359358  0.14295455    -0.18200
C467        C  0.20986514  0.23705758  0.14613894     0.10100
C468        C  0.19608508  0.25540994  0.11866993    -0.07000
C469        C  0.20732779  0.24386846  0.08849681    -0.18300
C470        C  0.23594679  0.21885615  0.08522594     0.10100
S471        S  0.19065068  0.24233017  0.18593774    -0.33200
S472        S  0.25122558  0.20848215  0.04555559    -0.33200
H473        H  0.21313700  0.21435532  0.02962729     0.28100
H474        H  0.14550262  0.24179271  0.17642646     0.28100
H475        H  0.25215789  0.20214786  0.16435048     0.18700
H476        H  0.19658752  0.25751098  0.06734769     0.18700
C477        C  0.24837794  0.73698266  0.18344694    -0.07100
C478        C  0.22523173  0.76273547  0.19666610    -0.18200
C479        C  0.20117660  0.78315627  0.17751216     0.10100
C480        C  0.20104527  0.77922890  0.14364844    -0.07000
C481        C  0.22296326  0.75132124  0.13075455    -0.18300
C482        C  0.24660824  0.73064445  0.15015063     0.10100
S483        S  0.17210374  0.81503172  0.19748390    -0.33200
S484        S  0.27465353  0.69738732  0.13083541    -0.33200
H485        H  0.31341571  0.70923388  0.15358640     0.28100
H486        H  0.15853490  0.78381544  0.22509774     0.28100
H487        H  0.22625313  0.76724755  0.22228278     0.18700
H488        H  0.22304244  0.74551563  0.10548152     0.18700
C489        C  0.56064503  0.78146604  0.13838622    -0.07100
C490        C  0.51036018  0.75964144  0.12590987    -0.18200
C491        C  0.46730443  0.73754453  0.14577983     0.10100
C492        C  0.47380504  0.73773263  0.17907233    -0.07000
C493        C  0.52317469  0.75933294  0.19183173    -0.18300
C494        C  0.56647130  0.78155717  0.17220968     0.10100
S495        S  0.40510790  0.70869400  0.12711186    -0.33200
S496        S  0.62870883  0.81092498  0.19137068    -0.33200
H497        H  0.61188045  0.78770146  0.22158746     0.28100
H498        H  0.37932783  0.67117419  0.15090496     0.28100
H499        H  0.50322847  0.75916116  0.10066487     0.18700
H500        H  0.52777362  0.75982075  0.21753635     0.18700
C501        C  0.22686155  0.80161905  0.35454731    -0.07100
C502        C  0.26209175  0.78782878  0.36726186    -0.18200
C503        C  0.28478475  0.76665874  0.34813253     0.10100
C504        C  0.27191396  0.75821219  0.31546576    -0.07000
C505        C  0.23914087  0.77399943  0.30241055    -0.18300
C506        C  0.21837058  0.79734790  0.32098343     0.10100
S507        S  0.32926766  0.75088238  0.36698680    -0.33200
S508        S  0.18189164  0.82191342  0.30054541    -0.33200
H509        H  0.20680033  0.83023668  0.27101467     0.28100
H510        H  0.31964831  0.71040802  0.34662746     0.28100
H511        H  0.27334039  0.79400412  0.39203821     0.18700
H512        H  0.23008470  0.76847923  0.27721286     0.18700
C513        C  0.57733368  0.78612822  0.34964331    -0.07100
C514        C  0.52897711  0.74912506  0.36185041    -0.18200
C515        C  0.48432294  0.72948212  0.34353066     0.10100
C516        C  0.48699317  0.74504050  0.31144708    -0.07000
C517        C  0.53486119  0.77966177  0.29835899    -0.18300
C518        C  0.58004869  0.79913471  0.31663539     0.10100
S519        S  0.42496780  0.68485414  0.36278965    -0.33200
S520        S  0.64065872  0.83714653  0.29653848    -0.33200
H521        H  0.62095329  0.84512378  0.26779036     0.28100
H522        H  0.39460345  0.69994420  0.34531302     0.28100
H523        H  0.52485087  0.73326739  0.38558147     0.18700
H524        H  0.53697508  0.78973286  0.27327041     0.18700
C525        C  0.25023727  0.51013559  0.19379856    -0.07100
C526        C  0.27797952  0.50149796  0.17027250    -0.18200
C527        C  0.25576040  0.45620118  0.15216753     0.10100
C528        C  0.20351035  0.41840489  0.15675077    -0.07000
C529        C  0.17719646  0.42643930  0.18167685    -0.18300
C530        C  0.19938960  0.47085520  0.19994987     0.10100
S531        S  0.29534152  0.44764352  0.12352148    -0.33200
S532        S  0.16004072  0.47279095  0.23156667    -0.33200
H533        H  0.19887016  0.49077890  0.25469979     0.28100
H534        H  0.34274040  0.48645209  0.13510044     0.28100
H535        H  0.31728375  0.53062935  0.16581671     0.18700
H536        H  0.13931025  0.39775715  0.18860662     0.18700
C537        C  0.25768858  0.52849659  0.32361764    -0.07100
C538        C  0.24484168  0.48003635  0.31224798    -0.18200
C539        C  0.22041554  0.43618791  0.33162660     0.10100
C540        C  0.21354083  0.44113863  0.36471300    -0.07000
C541        C  0.22547206  0.49008650  0.37580656    -0.18300
C542        C  0.24670330  0.53336691  0.35557236     0.10100
S543        S  0.19672536  0.37429391  0.31296716    -0.33200
S544        S  0.25996395  0.59376179  0.37212077    -0.33200
H545        H  0.30377132  0.62364382  0.35358681     0.28100
H546        H  0.21187851  0.39201520  0.28147485     0.28100
H547        H  0.25264442  0.47636418  0.28753733     0.18700
H548        H  0.21767200  0.49546697  0.40007364     0.18700
Fe549      Fe  0.36664970  0.63258638  0.75297364     1.65800
Fe550      Fe  0.25611661  0.63586093  0.75498317     1.73200
Fe551      Fe  0.36944029  0.74623287  0.74671938     1.54400
O552        O  0.43094620  0.75439383  0.77432522    -0.82600
O553        O  0.24858468  0.66938317  0.71348449    -0.81000
O554        O  0.41243722  0.67595651  0.79016785    -0.85200
O555        O  0.42211997  0.68055181  0.72050987    -0.80000
O556        O  0.33709652  0.75640563  0.78725950    -0.81800
O557        O  0.24650789  0.57393360  0.72811000    -0.84500
C558        C  0.43005600  0.71866650  0.70300076     0.96200
C559        C  0.43988168  0.72444435  0.79145511     1.03700
O560        O  0.33063804  0.67151781  0.75148672    -1.13500
O561        O  0.25637708  0.59859341  0.79685850    -0.75900
O562        O  0.31691939  0.57943559  0.78570329    -0.79400
O563        O  0.40497626  0.74200128  0.70583576    -0.80100
C564        C  0.27864055  0.57277564  0.80185472     0.95100
O565        O  0.32314696  0.58512524  0.71615269    -0.78100
O566        O  0.25616109  0.69324660  0.78232260    -0.83300
C567        C  0.27146754  0.71662876  0.70602409     0.97800
C568        C  0.29011059  0.73502986  0.79469543     1.03700
O569        O  0.31377135  0.74918533  0.71851686    -0.78900
C570        C  0.27459557  0.56001294  0.71383189     1.02000
C571        C  0.37609589  0.19687872  0.62707596     0.85500
C572        C  0.34572114  0.13879592  0.63338306    -0.54700
C573        C  0.30275555  0.11263350  0.61510953     0.08400
C574        C  0.29257742  0.14763622  0.59253853     0.19400
C575        C  0.38510493  0.20126113  0.59049205    -0.55400
C576        C  0.34175266  0.17562148  0.57260241     0.08500
C577        C  0.33735647  0.21512038  0.63175539    -0.55000
C578        C  0.29358946  0.18986833  0.61385119     0.09100
H579        H  0.35840150  0.11967198  0.65027493     0.13600
H580        H  0.25732620  0.12662096  0.57791952    -0.00600
H581        H  0.42171531  0.22142815  0.57868364     0.13900
H582        H  0.34464066  0.24650971  0.64745910     0.13700
C583        C  0.82409606  0.61551495  0.87299071     0.85500
C584        C  0.88229894  0.65302435  0.86976047    -0.54700
C585        C  0.90058231  0.69600912  0.88799803     0.08400
C586        C  0.85888524  0.69813722  0.90776990     0.19400
C587        C  0.81657114  0.60486494  0.90914612    -0.55400
C588        C  0.83459063  0.64774577  0.92741877     0.08500
C589        C  0.79994637  0.64880101  0.86526234    -0.55000
C590        C  0.81698850  0.69134547  0.88367486     0.09100
H591        H  0.90846091  0.64670116  0.85570741     0.13600
H592        H  0.87341163  0.73323601  0.92236751    -0.00600
H593        H  0.79721698  0.56637641  0.91925939     0.13900
H594        H  0.76941830  0.63789704  0.84781167     0.13700
C595        C  0.38798968  0.20310744  0.88028457     0.85500
C596        C  0.35580988  0.22966244  0.87411969    -0.54700
C597        C  0.31234588  0.21021269  0.89223492     0.08400
C598        C  0.30482766  0.16619994  0.91453859     0.19400
C599        C  0.39774542  0.20735518  0.91630748    -0.55400
C600        C  0.35459125  0.18869422  0.93404182     0.08500
C601        C  0.34913380  0.14633202  0.87428170    -0.55000
C602        C  0.30573456  0.12587213  0.89265290     0.09100
H603        H  0.36637050  0.26142358  0.85760134     0.13600
H604        H  0.27007079  0.15241663  0.92910280    -0.00600
H605        H  0.43565596  0.22411510  0.92694243     0.13900
H606        H  0.35569980  0.12414298  0.85674796     0.13700
C607        C  0.20385506  0.82834452  0.87718116     0.85500
C608        C  0.22373206  0.88571446  0.87096089    -0.54700
C609        C  0.19818154  0.90552283  0.88691108     0.08400
C610        C  0.15591844  0.86587223  0.90910855     0.19400
C611        C  0.20761287  0.82453387  0.91398983    -0.55400
C612        C  0.18290376  0.84453056  0.93053139     0.08500
C613        C  0.14584697  0.80146334  0.87094765    -0.55000
C614        C  0.12079458  0.82125162  0.88721991     0.09100
H615        H  0.25684457  0.90892847  0.85608105     0.13600
H616        H  0.13482627  0.88081953  0.92271635    -0.00600
H617        H  0.22645292  0.80691261  0.92661497     0.13900
H618        H  0.12598313  0.76817022  0.85573284     0.13700
C619        C  0.18099219  0.80570136  0.62076765     0.85500
C620        C  0.12433442  0.78765443  0.62654573    -0.54700
C621        C  0.10564922  0.81369046  0.60925371     0.08400
C622        C  0.14549210  0.85522495  0.58685288     0.19400
C623        C  0.18436459  0.80111904  0.58420002    -0.55400
C624        C  0.16553280  0.82671596  0.56673177     0.08500
C625        C  0.20914467  0.86385827  0.62603946    -0.55000
C626        C  0.19071772  0.89005794  0.60871084     0.09100
H627        H  0.10049517  0.75541399  0.64215037     0.13600
H628        H  0.13067388  0.87586271  0.57199441    -0.00600
H629        H  0.20099072  0.78124188  0.57232471     0.13900
H630        H  0.24181216  0.88291973  0.64200821     0.17700
C631        C  0.81105580  0.61871691  0.62280581     0.85500
C632        C  0.78551738  0.65143076  0.62818542    -0.54700
C633        C  0.80324008  0.69390503  0.60919089     0.08400
C634        C  0.84516578  0.70026765  0.58589491     0.19400
C635        C  0.80201333  0.60682824  0.58683661    -0.55400
C636        C  0.82006881  0.64934320  0.56736477     0.08500
C637        C  0.86850976  0.65619060  0.62608450    -0.55000
C638        C  0.88684739  0.69870951  0.60677686     0.09100
H639        H  0.75212038  0.63986639  0.64294171     0.13600
H640        H  0.86003255  0.73525084  0.57072255    -0.00600
H641        H  0.78268291  0.56813340  0.57753352     0.13900
H642        H  0.89291034  0.64905717  0.64210318     0.13700
C643        C  0.60700512  0.80144716  0.61773157     0.85500
C644        C  0.64440634  0.85883342  0.62277145    -0.54700
C645        C  0.68850597  0.87878640  0.60528946     0.08400
C646        C  0.69115658  0.83872524  0.58415960     0.19400
C647        C  0.59820723  0.79699704  0.58108754    -0.55400
C648        C  0.64236207  0.81680842  0.56376703     0.08500
C649        C  0.63851033  0.77474456  0.62379686    -0.55000
C650        C  0.68218226  0.79396985  0.60618949     0.09100
H651        H  0.63568125  0.88209964  0.63826711     0.13600
H652        H  0.72694733  0.85359277  0.57021207    -0.00600
H653        H  0.56148213  0.77867274  0.56916143     0.13900
H654        H  0.62619678  0.74193818  0.63979288     0.13700
C655        C  0.19295735  0.39450763  0.88774312     0.85500
C656        C  0.13684490  0.35655725  0.87994825    -0.54700
C657        C  0.11595794  0.31232281  0.89754494     0.08400
C658        C  0.15354510  0.30924564  0.92133528     0.19400
C659        C  0.19332626  0.40243629  0.92422589    -0.55400
C660        C  0.17323455  0.35781232  0.94174555     0.08500
C661        C  0.22138308  0.36428919  0.88467334    -0.55000
C662        C  0.20042202  0.31924050  0.90146831     0.09100
H663        H  0.11450037  0.36538853  0.86317364     0.13600
H664        H  0.13629374  0.27281926  0.93532087    -0.00600
H665        H  0.20879966  0.43922320  0.93574176     0.13900
H666        H  0.25579763  0.37770714  0.87048798     0.13700
C667        C  0.81183189  0.17543945  0.87387638     0.85500
C668        C  0.79917976  0.12000501  0.86654274    -0.54700
C669        C  0.82396222  0.10169291  0.88537921     0.08400
C670        C  0.85937991  0.14058028  0.91045771     0.19400
C671        C  0.79944777  0.17276767  0.90968995    -0.55400
C672        C  0.82441078  0.15493168  0.92874911     0.08500
C673        C  0.87064003  0.20691894  0.87206468    -0.55000
C674        C  0.89549857  0.18945368  0.89152079     0.09100
H675        H  0.76997556  0.09451585  0.85017376     0.13600
H676        H  0.87965548  0.12633043  0.92615443    -0.00600
H677        H  0.77411178  0.18518218  0.91927183     0.13900
H678        H  0.89100940  0.24139704  0.85747160     0.13700
C679        C  0.62563959  0.80710657  0.87062756     0.85500
C680        C  0.65694356  0.78080120  0.86378489    -0.54700
C681        C  0.69915197  0.79627447  0.88283655     0.08400
C682        C  0.70755271  0.83849718  0.90653002     0.19400
C683        C  0.61506185  0.79961519  0.90682541    -0.55400
C684        C  0.65728175  0.81526074  0.92551223     0.08500
C685        C  0.66416160  0.86510782  0.86785851    -0.55000
C686        C  0.70741715  0.88181920  0.88627178     0.09100
H687        H  0.64531962  0.75071738  0.84622477     0.13600
H688        H  0.74222533  0.85140331  0.92159633    -0.00600
H689        H  0.57803703  0.78649193  0.91761738     0.13900
H690        H  0.65701511  0.89128176  0.85354614     0.13700
C691        C  0.79115032  0.17482891  0.61749598     0.85500
C692        C  0.84802856  0.20024822  0.62689862    -0.54700
C693        C  0.87551038  0.18261314  0.61101729     0.08400
C694        C  0.84278096  0.13908719  0.58766693     0.19400
C695        C  0.79049125  0.17956329  0.58084711    -0.55400
C696        C  0.81729974  0.16096261  0.56520055     0.08500
C697        C  0.77167027  0.11726332  0.62361055    -0.55000
C698        C  0.79872247  0.09862723  0.60835338     0.09100
H699        H  0.86559151  0.23088212  0.64421326     0.13600
H700        H  0.86441438  0.12412826  0.57465229    -0.00600
H701        H  0.77000794  0.19575392  0.56832737     0.13900
H702        H  0.73925259  0.09214650  0.63827899     0.13700
C703        C  0.17756751  0.37240335  0.63575974     0.85500
C704        C  0.19949281  0.33636136  0.64028528    -0.54700
C705        C  0.17736567  0.29387404  0.62138280     0.08400
C706        C  0.13516216  0.29142101  0.59909669     0.19400
C707        C  0.18199980  0.38463549  0.59955817    -0.55400
C708        C  0.16045546  0.34251661  0.58020366     0.08500
C709        C  0.11938317  0.33727615  0.64057193    -0.55000
C710        C  0.09703951  0.29592826  0.62101103     0.09100
H711        H  0.23115386  0.34477513  0.65635641     0.13600
H712        H  0.11773831  0.25674002  0.58401963    -0.00600
H713        H  0.20023923  0.42354284  0.59007527     0.13900
H714        H  0.09550557  0.34560519  0.65550689     0.13700
Fe715      Fe  0.74248142  0.35930645  0.74641506     1.65800
Fe716      Fe  0.63485381  0.36952081  0.75004770     1.73200
Fe717      Fe  0.62430003  0.25196768  0.75142205     1.54400
O718        O  0.65761375  0.24335062  0.71060193    -0.82600
O719        O  0.57953484  0.32236886  0.78231604    -0.81000
O720        O  0.73832384  0.30771378  0.71232279    -0.85200
O721        O  0.74739069  0.31471547  0.78298151    -0.80000
O722        O  0.56598616  0.25030357  0.72364943    -0.81800
O723        O  0.68058356  0.41311922  0.78733291    -0.84500
C724        C  0.71953687  0.26776972  0.79052775     0.96200
C725        C  0.70344373  0.26589705  0.70040035     1.03700
O726        O  0.66750675  0.32708266  0.74923138    -1.13500
O727        O  0.68489098  0.42346702  0.71839934    -0.75900
O728        O  0.74971140  0.40991957  0.70988412    -0.79400
O729        O  0.67450677  0.24078915  0.77975377    -0.80100
C730        C  0.72716346  0.43559209  0.70537795     0.95100
O731        O  0.75435632  0.41441158  0.77975631    -0.78100
O732        O  0.58666362  0.33098830  0.71247626    -0.83300
C733        C  0.56827719  0.28220603  0.79847168     0.97800
C734        C  0.55820738  0.28303684  0.70897108     1.03700
O735        O  0.58799288  0.25444791  0.79253982    -0.78900
C736        C  0.72806698  0.43138844  0.79300348     1.02000
C737        C  0.71826105  0.24203793  0.67454034    -0.07100
C738        C  0.76155396  0.27346025  0.65584161    -0.18200
C739        C  0.78283371  0.25264904  0.63512595     0.10100
C740        C  0.76285857  0.19868765  0.63456716    -0.07000
C741        C  0.71630751  0.16765141  0.65069990    -0.18300
C742        C  0.69370854  0.18841176  0.67002149     0.10100
S743        S  0.83586916  0.29599045  0.60999728    -0.33200
S744        S  0.63464609  0.14349742  0.68925882    -0.33200
H745        H  0.60774090  0.16636972  0.67586712     0.28100
H746        H  0.83250304  0.34021610  0.61557510     0.28100
H747        H  0.77943435  0.31469705  0.65789732     0.18700
H748        H  0.69595416  0.12662007  0.64833238     0.18700
C749        C  0.93244760  0.20920442  0.61328563    -0.07100
C750        C  0.95886712  0.26284462  0.61020623    -0.18200
C751        C  0.01221856  0.29138409  0.61102257     0.10100
C752        C  0.04055246  0.26620182  0.61693276    -0.07000
C753        C  0.01467850  0.21249191  0.61893394    -0.18300
C754        C  0.96101318  0.18370317  0.61708437     0.10100
S755        S  0.04350568  0.35937038  0.60178194    -0.33200
S756        S  0.93177047  0.11516012  0.62114882    -0.33200
H757        H  0.88984953  0.10939046  0.63863069     0.28100
H758        H  0.99908960  0.36268508  0.59660731     0.28100
H759        H  0.93739834  0.28240240  0.60597896     0.18700
H760        H  0.03633751  0.19297484  0.62273379     0.18700
C761        C  0.74079631  0.24310270  0.81206081    -0.07100
C762        C  0.77338287  0.27120149  0.83718834    -0.18200
C763        C  0.79537399  0.24994943  0.85776339     0.10100
C764        C  0.78549921  0.19889752  0.85310185    -0.07000
C765        C  0.75177968  0.17095033  0.82797100    -0.18300
C766        C  0.73011272  0.19226559  0.80758899     0.10100
S767        S  0.83557769  0.28916442  0.88994608    -0.33200
S768        S  0.69172373  0.15304261  0.77489760    -0.33200
H769        H  0.71437392  0.19257743  0.75185153     0.28100
H770        H  0.83636747  0.33491682  0.88134310     0.28100
H771        H  0.78123456  0.31001699  0.84084953     0.18700
H772        H  0.74243917  0.13244950  0.82267625     0.18700
C773        C  0.82158829  0.15412192  0.96404815    -0.07100
C774        C  0.86682595  0.18459373  0.98109194    -0.18200
C775        C  0.86560850  0.18340853  0.51276330     0.10100
C776        C  0.81903826  0.15944358  0.52968437    -0.07000
C777        C  0.77310046  0.13227592  0.51244765    -0.18300
C778        C  0.77490109  0.12709097  0.98081274     0.10100
S779        S  0.92597191  0.22328970  0.53187460    -0.33200
S780        S  0.71515649  0.08392707  0.96152307    -0.33200
H781        H  0.73648928  0.07047586  0.93634423     0.28100
H782        H  0.90658958  0.24772540  0.55098260     0.28100
H783        H  0.90274225  0.20554316  0.96843214     0.18700
H784        H  0.73712810  0.11286788  0.52521975     0.18700
C785        C  0.80803995  0.04600071  0.88553296    -0.07100
C786        C  0.79477133  0.01920727  0.91474536    -0.18200
C787        C  0.76549253  0.96537250  0.91591841     0.10100
C788        C  0.74778640  0.93737223  0.88719267    -0.07000
C789        C  0.76578382  0.96406284  0.85807082    -0.18300
C790        C  0.79676329  0.01759133  0.85700844     0.10100
S791        S  0.74735314  0.93474885  0.95448809    -0.33200
S792        S  0.82042443  0.04750885  0.81852549    -0.33200
H793        H  0.86302571  0.09181983  0.83058669     0.28100
H794        H  0.78847873  0.97434737  0.97120431     0.28100
H795        H  0.80369291  0.04048947  0.93677631     0.18700
H796        H  0.75478413  0.94306046  0.83586241     0.18700
C797        C  0.17050251  0.35563096  0.97715297    -0.07100
C798        C  0.12368490  0.32097912  0.99118471    -0.18200
C799        C  0.12081090  0.31513184  0.52443181     0.10100
C800        C  0.16273914  0.34672998  0.54448433    -0.07000
C801        C  0.20884105  0.38343870  0.53013127    -0.18300
C802        C  0.21309752  0.38548920  0.99706363     0.10100
S803        S  0.05863080  0.27025115  0.54003702    -0.33200
S804        S  0.27642560  0.42818091  0.98188729    -0.33200
H805        H  0.27245125  0.39827030  0.95535418     0.28100
H806        H  0.03734118  0.24335339  0.51158421     0.28100
H807        H  0.09099546  0.29872284  0.97585685     0.18700
H808        H  0.24164421  0.40739911  0.54498781     0.18700
C809        C  0.95192577  0.21861027  0.89615981    -0.07100
C810        C  0.98185792  0.19751140  0.88629149    -0.18200
C811        C  0.03564048  0.22661123  0.88694988     0.10100
C812        C  0.05984032  0.27742273  0.89822959    -0.07000
C813        C  0.02984335  0.29724100  0.90973097    -0.18300
C814        C  0.97639698  0.26846978  0.90897483     0.10100
S815        S  0.07115836  0.19770420  0.87209233    -0.33200
S816        S  0.94006565  0.29528159  0.92565439    -0.33200
H817        H  0.98090070  0.34580334  0.92869671     0.28100
H818        H  0.11213398  0.24307954  0.85954666     0.28100
H819        H  0.96328408  0.15901585  0.87680853     0.18700
H820        H  0.04865367  0.33569152  0.91927024     0.18700
C821        C  0.72706852  0.93478183  0.60585381    -0.07100
C822        C  0.73863396  0.95963445  0.63546491    -0.18200
C823        C  0.76623357  0.01311701  0.63752464     0.10100
C824        C  0.78241990  0.04316698  0.60916209    -0.07000
C825        C  0.77566675  0.01856693  0.57991564    -0.18300
C826        C  0.74840942  0.96491144  0.57785177     0.10100
S827        S  0.77807634  0.03986507  0.67714478    -0.33200
S828        S  0.73715767  0.93752706  0.53864556    -0.33200
H829        H  0.77946209  0.97940538  0.52400791     0.28100
H830        H  0.81863464  0.08865776  0.66909869     0.28100
H831        H  0.72455918  0.93712217  0.65727556     0.18700
H832        H  0.78801742  0.04144937  0.55817019     0.18700
C833        C  0.65364188  0.81520862  0.96076770    -0.07100
C834        C  0.62557862  0.83609479  0.97419134    -0.18200
C835        C  0.61916435  0.83480700  0.50868587     0.10100
C836        C  0.64369798  0.81529234  0.52856421    -0.07000
C837        C  0.67239900  0.79562283  0.51473059    -0.18300
C838        C  0.67637137  0.79434795  0.98101813     0.10100
S839        S  0.58526687  0.86531812  0.52382727    -0.33200
S840        S  0.70911787  0.76318948  0.96525017    -0.33200
H841        H  0.70516351  0.73475557  0.99310075     0.28100
H842        H  0.61782483  0.88825369  0.55014187     0.28100
H843        H  0.60835317  0.85264661  0.95879525     0.18700
H844        H  0.69121115  0.78070725  0.53007418     0.18700
C845        C  0.79269856  0.57152348  0.64501822    -0.07100
C846        C  0.76662704  0.56872687  0.67338067    -0.18200
C847        C  0.74633947  0.52585473  0.69341587     0.10100
C848        C  0.75157220  0.48313686  0.68555175    -0.07000
C849        C  0.78215503  0.48743113  0.65930476    -0.18300
C850        C  0.80387616  0.53156814  0.63947072     0.10100
S851        S  0.71687778  0.53025566  0.72971741    -0.33200
S852        S  0.84759564  0.53702601  0.60837737    -0.33200
H853        H  0.84159428  0.48780106  0.61225087     0.28100
H854        H  0.73902500  0.50823959  0.74921171     0.28100
H855        H  0.76358545  0.60095759  0.68145529     0.18700
H856        H  0.78893470  0.45610901  0.65435106     0.18700
C857        C  0.77467874  0.72209029  0.60664269    -0.07100
C858        C  0.72234614  0.69361130  0.59914761    -0.18200
C859        C  0.69192204  0.71657996  0.59769093     0.10100
C860        C  0.71384372  0.76904867  0.60495977    -0.07000
C861        C  0.76666647  0.79825697  0.61077917    -0.18300
C862        C  0.79732068  0.77527370  0.61179455     0.10100
S863        S  0.62609366  0.67929687  0.58461009    -0.33200
S864        S  0.86436238  0.81534905  0.62070403    -0.33200
H865        H  0.87003548  0.77768505  0.63749732     0.28100
H866        H  0.62461374  0.63198242  0.58225608     0.28100
H867        H  0.70556276  0.65321261  0.59392378     0.18700
H868        H  0.78380503  0.83887142  0.61551963     0.18700
C869        C  0.05030426  0.79718759  0.60907109    -0.07100
C870        C  0.02465627  0.78627632  0.57965535    -0.18200
C871        C  0.97127101  0.75659318  0.57806855     0.10100
C872        C  0.94234886  0.73817521  0.60649823    -0.07000
C873        C  0.96800189  0.75437488  0.63592008    -0.18300
C874        C  0.02135141  0.78405713  0.63748269     0.10100
S875        S  0.94357058  0.73791809  0.53911222    -0.33200
S876        S  0.05023635  0.80377867  0.67640648    -0.33200
H877        H  0.09459267  0.84776500  0.66545407     0.28100
H878        H  0.92638302  0.68594254  0.54589262     0.28100
H879        H  0.04639000  0.79689262  0.55765828     0.18700
H880        H  0.94635950  0.74263117  0.65796322     0.18700
C881        C  0.17873802  0.84140137  0.96587598    -0.07100
C882        C  0.14047689  0.79566744  0.97972215    -0.18200
C883        C  0.13472401  0.78733444  0.51211744     0.10100
C884        C  0.16758992  0.82932063  0.53150358    -0.07000
C885        C  0.20568062  0.87460129  0.51713420    -0.18300
C886        C  0.21150017  0.88237481  0.98594295     0.10100
S887        S  0.08428232  0.72679069  0.52753068    -0.33200
S888        S  0.26504539  0.94130646  0.97139561    -0.33200
H889        H  0.27141981  0.92255606  0.94231928     0.28100
H890        H  0.08639961  0.73951840  0.55975406     0.28100
H891        H  0.11577042  0.76387991  0.96446364     0.18700
H892        H  0.23152462  0.90646713  0.53200718     0.18700
C893        C  0.43839901  0.22429643  0.86176980    -0.07100
C894        C  0.46399309  0.27615098  0.85204192    -0.18200
C895        C  0.50876597  0.29734949  0.83392206     0.10100
C896        C  0.52834506  0.26579040  0.82366818    -0.07000
C897        C  0.50634100  0.21577218  0.83621637    -0.18300
C898        C  0.46374219  0.19571604  0.85639024     0.10100
S899        S  0.53963507  0.36545618  0.82609154    -0.33200
S900        S  0.44621264  0.13439010  0.87474673    -0.33200
H901        H  0.43295731  0.14510247  0.90450298     0.28100
H902        H  0.58924681  0.37371918  0.83186360     0.28100
H903        H  0.45030117  0.30145325  0.85940445     0.18700
H904        H  0.52250741  0.19181959  0.83039628     0.18700
C905        C  0.27863646  0.23308339  0.89368688    -0.07100
C906        C  0.26581351  0.24283762  0.92395419    -0.18200
C907        C  0.23830171  0.26867935  0.92742604     0.10100
C908        C  0.22274869  0.28504191  0.89990980    -0.07000
C909        C  0.23330631  0.27293227  0.86961505    -0.18300
C910        C  0.26027934  0.24658486  0.86621456     0.10100
S911        S  0.22650129  0.28282980  0.96713077    -0.33200
S912        S  0.26839667  0.22994300  0.82633982    -0.33200
H913        H  0.26698020  0.18398180  0.83527520     0.28100
H914        H  0.26298413  0.27423573  0.98291483     0.28100
H915        H  0.27876382  0.23154154  0.94512027     0.18700
H916        H  0.22054758  0.28436969  0.84834492     0.18700
C917        C  0.26585901  0.06988851  0.89064565    -0.07100
C918        C  0.25962766  0.04581412  0.86102029    -0.18200
C919        C  0.23429826  0.99252027  0.85830368     0.10100
C920        C  0.21435097  0.96129662  0.88593813    -0.07000
C921        C  0.21350628  0.98481004  0.91438880    -0.18300
C922        C  0.23846318  0.03835210  0.91723083     0.10100
S923        S  0.22785410  0.96760416  0.81862511    -0.33200
S924        S  0.23362080  0.06317379  0.95519218    -0.33200
H925        H  0.21621086  0.01794893  0.97349112     0.28100
H926        H  0.18091496  0.92341365  0.82485778     0.28100
H927        H  0.27569281  0.06877428  0.83958789     0.18700
H928        H  0.19516104  0.96124021  0.93514790     0.18700
C929        C  0.79961316  0.56590623  0.85325704    -0.07100
C930        C  0.82858418  0.55640443  0.83098303    -0.18200
C931        C  0.80674047  0.51327213  0.81148732     0.10100
C932        C  0.75423033  0.47626897  0.81457031    -0.07000
C933        C  0.72503250  0.48492863  0.83690603    -0.18300
C934        C  0.74651898  0.52911328  0.85583327     0.10100
S935        S  0.84819083  0.51055344  0.78168669    -0.33200
S936        S  0.70462321  0.53785070  0.88257707    -0.33200
H937        H  0.65809549  0.49620677  0.87218073     0.28100
H938        H  0.81435039  0.50185036  0.75609522     0.28100
H939        H  0.86838216  0.58325992  0.82702179     0.18700
H940        H  0.68475725  0.45711292  0.83921914     0.18700
C941        C  0.82923794  0.64627966  0.96274803    -0.07100
C942        C  0.81443029  0.67916213  0.97637319    -0.18200
C943        C  0.80664664  0.67717810  0.51195762     0.10100
C944        C  0.81870299  0.64620829  0.53180445    -0.07000
C945        C  0.83401018  0.61405331  0.51749343    -0.18300
C946        C  0.83865190  0.61380125  0.98306864     0.10100
S947        S  0.78250292  0.71626620  0.52778695    -0.33200
S948        S  0.86308417  0.57362153  0.96925134    -0.33200
H949        H  0.89417699  0.60774721  0.94517619     0.28100
H950        H  0.79838101  0.75130370  0.50198555     0.28100
H951        H  0.80583674  0.70305179  0.96088907     0.18700
H952        H  0.84462328  0.59105466  0.53240124     0.18700
C953        C  0.95623587  0.73476588  0.88879226    -0.07100
C954        C  0.98194581  0.75279399  0.85956910    -0.18200
C955        C  0.03516528  0.78376171  0.85831600     0.10100
C956        C  0.06410335  0.79697834  0.88689541    -0.07000
C957        C  0.03833140  0.78171478  0.91615461    -0.18300
C958        C  0.98494936  0.75023744  0.91748060     0.10100
S959        S  0.06364255  0.80569567  0.81956006    -0.33200
S960        S  0.95545091  0.72598247  0.95578908    -0.33200
H961        H  0.99963607  0.75327622  0.97464170     0.28100
H962        H  0.10267240  0.85289365  0.83080109     0.28100
H963        H  0.96033305  0.74195478  0.83741876     0.18700
H964        H  0.06046256  0.79192679  0.93801846     0.18700
C965        C  0.78904481  0.72050751  0.88432817    -0.07100
C966        C  0.73593735  0.69239170  0.88909792    -0.18200
C967        C  0.70606501  0.71610536  0.88882391     0.10100
C968        C  0.72965709  0.76966467  0.88364713    -0.07000
C969        C  0.78310653  0.79830567  0.88027542    -0.18300
C970        C  0.81293247  0.77426133  0.88013828     0.10100
S971        S  0.63833407  0.67781526  0.89711010    -0.33200
S972        S  0.88062724  0.81384953  0.87321659    -0.33200
H973        H  0.88605280  0.77690072  0.85620815     0.28100
H974        H  0.63653233  0.63046761  0.90130850     0.28100
H975        H  0.71783995  0.65142241  0.89326109     0.18700
H976        H  0.80152583  0.83948202  0.87679038     0.18700
C977        C  0.51320840  0.26409098  0.68778723    -0.07100
C978        C  0.46446969  0.23662577  0.70143050    -0.18200
C979        C  0.41991378  0.21753309  0.68263476     0.10100
C980        C  0.42386706  0.22400403  0.64879965    -0.07000
C981        C  0.47345686  0.25448962  0.63580773    -0.18300
C982        C  0.51761744  0.27385663  0.65472778     0.10100
S983        S  0.35854288  0.18494686  0.70257693    -0.33200
S984        S  0.57869120  0.30962043  0.63501639    -0.33200
H985        H  0.60548260  0.29365850  0.65547878     0.28100
H986        H  0.37708599  0.19705772  0.73407614     0.28100
H987        H  0.46146078  0.23043025  0.72706801     0.18700
H988        H  0.47943457  0.26388226  0.61078808     0.18700
C989        C  0.27393509  0.05551241  0.61355298    -0.07100
C990        C  0.22017496  0.02930857  0.61382891    -0.18200
C991        C  0.19148090  0.97539659  0.61187608     0.10100
C992        C  0.21721829  0.94718840  0.60898385    -0.07000
C993        C  0.27079385  0.97372169  0.60755951    -0.18300
C994        C  0.29942731  0.02705496  0.60992272     0.10100
S995        S  0.12262921  0.94330796  0.61484494    -0.33200
S996        S  0.36816468  0.05789071  0.60508877    -0.33200
H997        H  0.37202770  0.01321751  0.60438583     0.28100
H998        H  0.11873931  0.98744777  0.61950093     0.28100
H999        H  0.20078793  0.05119902  0.61614735     0.18700
H1000       H  0.29039834  0.95226838  0.60414650     0.18700
C1001       C  0.34354326  0.17711161  0.53715876    -0.07100
C1002       C  0.36554656  0.22514418  0.52163963    -0.18200
C1003       C  0.36646109  0.23225779  0.98719726     0.10100
C1004       C  0.35559609  0.18876916  0.96900541    -0.07000
C1005       C  0.34382868  0.14273241  0.98437887    -0.18300
C1006       C  0.32627835  0.13253361  0.51873666     0.10100
S1007       S  0.38464457  0.29469061  0.97029248    -0.33200
S1008       S  0.29896000  0.06978091  0.53686052    -0.33200
H1009       H  0.28916254  0.04155410  0.50861925     0.28100
H1010       H  0.38574982  0.28435935  0.93791614     0.28100
H1011       H  0.37950913  0.25961614  0.53568130     0.18700
H1012       H  0.33841644  0.11060610  0.97016270     0.18700
C1013       C  0.25374988  0.20568641  0.61460627    -0.07100
C1014       C  0.23765872  0.21289143  0.64456895    -0.18200
C1015       C  0.20867503  0.23734475  0.64742195     0.10100
C1016       C  0.19688140  0.25713474  0.61982468    -0.07000
C1017       C  0.20888903  0.24600224  0.58978076    -0.18300
C1018       C  0.23659199  0.22007350  0.58679249     0.10100
S1019       S  0.18778536  0.24189085  0.68686262    -0.33200
S1020       S  0.25330479  0.21048419  0.54729578    -0.33200
H1021       H  0.21925444  0.22145428  0.53043080     0.28100
H1022       H  0.14387338  0.24316880  0.67656008     0.28100
H1023       H  0.24885590  0.20038856  0.66606111     0.18700
H1024       H  0.19944569  0.26064875  0.56855868     0.18700
C1025       C  0.24669097  0.73557228  0.68353369    -0.07100
C1026       C  0.22660398  0.76454247  0.69610611    -0.18200
C1027       C  0.20314793  0.78502473  0.67656901     0.10100
C1028       C  0.20144758  0.77854150  0.64286955    -0.07000
C1029       C  0.21969949  0.74699329  0.63068594    -0.18300
C1030       C  0.24212085  0.72561187  0.65055581     0.10100
S1031       S  0.17663917  0.82004900  0.69575417    -0.33200
S1032       S  0.26448618  0.68650560  0.63215713    -0.33200
H1033       H  0.30125394  0.69333033  0.65534381     0.28100
H1034       H  0.16891487  0.79556518  0.72572993     0.28100
H1035       H  0.22942043  0.77129109  0.72155900     0.18700
H1036       H  0.21705275  0.73826499  0.60566694     0.18700
C1037       C  0.55993111  0.78054220  0.63971966    -0.07100
C1038       C  0.50981964  0.76069676  0.62725912    -0.18200
C1039       C  0.46671965  0.73949623  0.64711313     0.10100
C1040       C  0.47301018  0.73866288  0.68038015    -0.07000
C1041       C  0.52226199  0.75891457  0.69315688    -0.18300
C1042       C  0.56559786  0.78020382  0.67355067     0.10100
S1043       S  0.40457481  0.71275257  0.62852734    -0.33200
S1044       S  0.62772186  0.80770666  0.69273577    -0.33200
H1045       H  0.61037496  0.78445491  0.72289881     0.28100
H1046       H  0.37873333  0.67352563  0.65137101     0.28100
H1047       H  0.50287654  0.76099264  0.60202325     0.18700
H1048       H  0.52676527  0.75893804  0.71886344     0.18700
C1049       C  0.23022917  0.80689580  0.85593330    -0.07100
C1050       C  0.25948389  0.78605376  0.86903920    -0.18200
C1051       C  0.28142439  0.76442406  0.84968037     0.10100
C1052       C  0.27304732  0.76166364  0.81645101    -0.07000
C1053       C  0.24556529  0.78339491  0.80310559    -0.18300
C1054       C  0.22539406  0.80699747  0.82203313     0.10100
S1055       S  0.31787229  0.73898285  0.86884152    -0.33200
S1056       S  0.19271921  0.83584372  0.80170829    -0.33200
H1057       H  0.21793851  0.84398359  0.77229375     0.28100
H1058       H  0.35705783  0.75880284  0.84597006     0.28100
H1059       H  0.26633770  0.78647223  0.89434637     0.18700
H1060       H  0.23958652  0.78160134  0.77751642     0.18700
C1061       C  0.57709083  0.78655467  0.84950861    -0.07100
C1062       C  0.52895432  0.74933301  0.86197654    -0.18200
C1063       C  0.48366741  0.73056467  0.84431505     0.10100
C1064       C  0.48546696  0.74695745  0.81248201    -0.07000
C1065       C  0.53301761  0.78192326  0.79913756    -0.18300
C1066       C  0.57878021  0.80063047  0.81676996     0.10100
S1067       S  0.42474577  0.68586604  0.86406474    -0.33200
S1068       S  0.63871396  0.83870742  0.79600691    -0.33200
H1069       H  0.61820739  0.84665810  0.76758968     0.28100
H1070       H  0.39351183  0.70038767  0.84704729     0.28100
H1071       H  0.52557339  0.73268004  0.88542346     0.18700
H1072       H  0.53444477  0.79263810  0.77420735     0.18700
C1073       C  0.24966967  0.51195585  0.69461981    -0.07100
C1074       C  0.27762941  0.50463661  0.67058640    -0.18200
C1075       C  0.25608024  0.45968652  0.65209619     0.10100
C1076       C  0.20423823  0.42082730  0.65685796    -0.07000
C1077       C  0.17776766  0.42758019  0.68224213    -0.18300
C1078       C  0.19926033  0.47175425  0.70077912     0.10100
S1079       S  0.29608225  0.45246859  0.62306664    -0.33200
S1080       S  0.15984802  0.47216189  0.73285006    -0.33200
H1081       H  0.19892460  0.48953262  0.75582948     0.28100
H1082       H  0.34113873  0.49918655  0.62880339     0.28100
H1083       H  0.31670501  0.53441026  0.66625046     0.18700
H1084       H  0.14040846  0.39784334  0.68938193     0.18700
C1085       C  0.25703743  0.52973482  0.82499949    -0.07100
C1086       C  0.24692727  0.48206949  0.81364663    -0.18200
C1087       C  0.22335093  0.43786124  0.83272359     0.10100
C1088       C  0.21439254  0.44180215  0.86560944    -0.07000
C1089       C  0.22353418  0.48986950  0.87668723    -0.18300
C1090       C  0.24402198  0.53344137  0.85669331     0.10100
S1091       S  0.20321000  0.37678291  0.81378595    -0.33200
S1092       S  0.25328775  0.59250671  0.87322830    -0.33200
H1093       H  0.29672422  0.62504807  0.85501320     0.28100
H1094       H  0.21826030  0.39526210  0.78240586     0.28100
H1095       H  0.25609772  0.47921674  0.78909275     0.18700
H1096       H  0.21378684  0.49414022  0.90071953     0.18700
loop_ 
_geom_bond_atom_site_label_1 
_geom_bond_atom_site_label_2 
_geom_bond_distance 
_geom_bond_site_symmetry_2 
_ccdc_geom_bond_type 
Fe1          O17   2.070       .  S
Fe1           O7   2.075       .  S
Fe1          O14   2.069       .  S
Fe1           O6   2.062       .  S
Fe1          O12   1.959       .  S
Fe2           O5   2.066       .  S
Fe2           O9   2.075       .  S
Fe2          O13   2.071       .  S
Fe2          O18   2.076       .  S
Fe2          O12   1.954       .  S
Fe3          O21   2.086       .  S
Fe3           O8   2.076       .  S
Fe3          O15   2.070       .  S
Fe3           O4   2.082       .  S
Fe3          O12   1.959       .  S
O4           C11   1.271       .  A
O5           C19   1.269       .  A
O6           C11   1.269       .  A
O7           C10   1.271       .  A
O8           C20   1.272       .  A
O9           C22   1.271       .  A
C10          O15   1.272       .  A
C10         C492   1.471       .  S
C11         C516   1.477       .  S
O13          C16   1.270       .  A
O14          C16   1.270       .  A
C16         C537   1.475       .  S
O17          C22   1.272       .  A
O18          C20   1.272       .  A
C19          O21   1.272       .  A
C19         C477   1.476       .  S
C20         C504   1.477       .  S
C22         C525   1.494       .  S
C23          C24   1.536       .  S
C23          C29   1.535       .  S
C23          C27   1.546       .  S
C23         C432   1.543       .  S
C24          H31   1.086       .  S
C24          C25   1.365       .  D
C25          C26   1.544       .  S
C25         C441   1.494       .  S
C26          C30   1.552       .  S
C26          C28   1.536       .  S
C26          H32   1.110       .  S
C27          H33   1.079       .  S
C27          C28   1.359       .  D
C28         C453   1.474       .  S
C29          H34   1.086       .  S
C29          C30   1.371       .  D
C30         C465   1.500       .  S
C35          C36   1.548       .  S
C35          C41   1.534       .  S
C35          C39   1.536       .  S
C35         C381   1.541       .  S
C36          H43   1.080       .  S
C36          C37   1.366       .  D
C37          C38   1.540       .  S
C37         C405   1.490       .  S
C38          C42   1.542       .  S
C38          C40   1.543       .  S
C38          H44   1.110       .  S
C39          H45   1.085       .  S
C39          C40   1.364       .  D
C40         C393   1.484       .  S
C41          H46   1.087       .  S
C41          C42   1.365       .  D
C42         C417   1.489       .  S
C47          C48   1.551       .  S
C47          C53   1.539       .  S
C47          C51   1.531       .  S
C47         C345   1.542       .  S
C48          H55   1.083       .  S
C48          C49   1.367       .  D
C49          C50   1.533       .  S
C49         C357   1.488       .  S
C50          C54   1.546       .  S
C50          C52   1.538       .  S
C50          H56   1.100       .  S
C51          H57   1.086       .  S
C51          C52   1.359       .  D
C52         C456   1.473       .  S
C53          H58   1.083       .  S
C53          C54   1.376       .  D
C54         C369   1.513       .  S
C59          C60   1.536       .  S
C59          C65   1.543       .  S
C59          C63   1.546       .  S
C59         C501   1.541       .  S
C60          H67   1.084       .  S
C60          C61   1.369       .  D
C61          C62   1.545       .  S
C61         C372   1.499       .  S
C62          C66   1.533       .  S
C62          C64   1.537       .  S
C62          H68   1.109       .  S
C63          H69   1.082       .  S
C63          C64   1.364       .  D
C64         C333   1.477       .  S
C65          H70   1.086       .  S
C65          C66   1.365       .  D
C66         C408   1.486       .  S
C71          C72   1.535       .  S
C71          C77   1.535       .  S
C71          C75   1.550       .  S
C71         C480   1.545       .  S
C72          H79   1.086       .  S
C72          C73   1.369       .  D
C73          C74   1.544       .  S
C73         C321   1.487       .  S
C74          C78   1.542       .  S
C74          C76   1.535       .  S
C74          H80   1.109       .  S
C75          H81   1.080       .  S
C75          C76   1.364       .  D
C76         C336   1.480       .  S
C77          H82   1.086       .  S
C77          C78   1.368       .  D
C78         C444   1.495       .  S
C83          C84   1.541       .  S
C83          C89   1.532       .  S
C83          C87   1.541       .  S
C83         C297   1.541       .  S
C84          H91   1.084       .  S
C84          C85   1.362       .  D
C85          C86   1.537       .  S
C85         C309   1.482       .  S
C86          C90   1.543       .  S
C86          C88   1.544       .  S
C86          H92   1.107       .  S
C87          H93   1.085       .  S
C87          C88   1.371       .  D
C88         C396   1.491       .  S
C89          H94   1.086       .  S
C89          C90   1.366       .  D
C90         C324   1.493       .  S
C95          C96   1.535       .  S
C95         C101   1.536       .  S
C95          C99   1.550       .  S
C95         C489   1.540       .  S
C96         H103   1.086       .  S
C96          C97   1.369       .  D
C97          C98   1.541       .  S
C97         C273   1.494       .  S
C98         C102   1.531       .  S
C98         C100   1.532       .  S
C98         H104   1.110       .  S
C99         H105   1.080       .  S
C99         C100   1.366       .  D
C100        C288   1.472       .  S
C101        H106   1.086       .  S
C101        C102   1.364       .  D
C102        C312   1.481       .  S
C107        C108   1.531       .  S
C107        C113   1.539       .  S
C107        C111   1.548       .  S
C107        C540   1.536       .  S
C108        H115   1.087       .  S
C108        C109   1.362       .  D
C109        C110   1.539       .  S
C109        C264   1.482       .  S
C110        C114   1.541       .  S
C110        C112   1.543       .  S
C110        H116   1.110       .  S
C111        H117   1.081       .  S
C111        C112   1.370       .  D
C112        C249   1.487       .  S
C113        H118   1.086       .  S
C113        C114   1.363       .  D
C114        C360   1.489       .  S
C119        C120   1.549       .  S
C119        C125   1.539       .  S
C119        C123   1.546       .  S
C119        C216   1.553       .  S
C120        H127   1.081       .  S
C120        C121   1.368       .  D
C121        C122   1.539       .  S
C121        C237   1.490       .  S
C122        C126   1.535       .  S
C122        C124   1.537       .  S
C122        H128   1.111       .  S
C123        H129   1.086       .  S
C123        C124   1.370       .  D
C124        C225   1.487       .  S
C125        H130   1.086       .  S
C125        C126   1.366       .  D
C126        C261   1.486       .  S
C131        C132   1.533       .  S
C131        C137   1.540       .  S
C131        C135   1.544       .  S
C131        C513   1.544       .  S
C132        H139   1.086       .  S
C132        C133   1.367       .  D
C133        C134   1.543       .  S
C133        C420   1.490       .  S
C134        C138   1.548       .  S
C134        C136   1.540       .  S
C134        H140   1.110       .  S
C135        H141   1.082       .  S
C135        C136   1.361       .  D
C136        C285   1.485       .  S
C137        H142   1.086       .  S
C137        C138   1.370       .  D
C138        C240   1.494       .  S
C143        C144   1.542       .  S
C143        C149   1.544       .  S
C143        C147   1.537       .  S
C143        C192   1.542       .  S
C144        H151   1.086       .  S
C144        C145   1.369       .  D
C145        C146   1.537       .  S
C145        C201   1.491       .  S
C146        C150   1.539       .  S
C146        C148   1.538       .  S
C146        H152   1.110       .  S
C147        H153   1.086       .  S
C147        C148   1.364       .  D
C148        C228   1.480       .  S
C149        H154   1.080       .  S
C149        C150   1.365       .  D
C150        C276   1.482       .  S
C155        C156   1.533       .  S
C155        C161   1.544       .  S
C155        C159   1.544       .  S
C155        C528   1.548       .  S
C156        H163   1.086       .  S
C156        C157   1.369       .  D
C157        C158   1.546       .  S
C157        C468   1.494       .  S
C158        C162   1.539       .  S
C158        C160   1.542       .  S
C158        H164   1.109       .  S
C159        H165   1.086       .  S
C159        C160   1.371       .  D
C160        C252   1.495       .  S
C161        H166   1.079       .  S
C161        C162   1.361       .  D
C162        C204   1.487       .  S
Fe167       O183   2.068       .  S
Fe167       O173   2.072       .  S
Fe167       O180   2.074       .  S
Fe167       O172   2.071       .  S
Fe167       O178   1.968       .  S
Fe168       O171   2.064       .  S
Fe168       O175   2.064       .  S
Fe168       O179   2.051       .  S
Fe168       O184   2.057       .  S
Fe168       O178   1.963       .  S
Fe169       O187   2.077       .  S
Fe169       O174   2.075       .  S
Fe169       O181   2.074       .  S
Fe169       O170   2.071       .  S
Fe169       O178   1.968       .  S
O170        C177   1.272       .  A
O171        C185   1.267       .  A
O172        C177   1.274       .  A
O173        C176   1.268       .  A
O174        C186   1.269       .  A
O175        C188   1.273       .  A
C176        O181   1.269       .  A
C176        C213   1.487       .  S
C177        C189   1.493       .  S
O179        C182   1.264       .  A
O180        C182   1.268       .  A
C182        C300   1.484       .  S
O183        C188   1.271       .  A
O184        C186   1.267       .  A
C185        O187   1.273       .  A
C185        C348   1.496       .  S
C186        C429   1.468       .  S
C188        C384   1.489       .  S
C189        C190   1.407       .  A
C189        C194   1.414       .  A
C190        C191   1.406       .  A
C190        H199   1.082       .  S
C191        C192   1.421       .  A
C191        S195   1.811       .  S
C192        C193   1.411       .  A
C193        C194   1.398       .  A
C193        H200   1.076       .  S
C194        S196   1.801       .  S
S195        H198   1.407       .  S
S196        H197   1.408       .  S
C201        C202   1.402       .  A
C201        C206   1.418       .  A
C202        C203   1.396   1_655  A
C202        H211   1.082       .  S
C203        C204   1.416       .  A
C203        S207   1.812       .  S
C204        C205   1.402       .  A
C205        C206   1.406   1_455  A
C205        H212   1.084       .  S
C206        S208   1.800       .  S
S207        H210   1.406       .  S
S208        H209   1.400       .  S
C213        C214   1.400       .  A
C213        C218   1.411       .  A
C214        C215   1.409       .  A
C214        H223   1.083       .  S
C215        C216   1.427       .  A
C215        S219   1.806       .  S
C216        C217   1.415       .  A
C217        C218   1.401       .  A
C217        H224   1.075       .  S
C218        S220   1.806       .  S
S219        H222   1.407       .  S
S220        H221   1.407       .  S
C225        C226   1.401       .  A
C225        C230   1.415       .  A
C226        C775   1.398       .  A
C226        H235   1.083       .  S
C227        C228   1.409       .  A
C227        C774   1.397   1_554  A
C227        S231   1.795       .  S
C228        C229   1.403       .  A
C229        C778   1.402   1_554  A
C229        H236   1.084       .  S
C230        C777   1.406       .  A
C230        S232   1.804       .  S
S231        H234   1.406       .  S
S232        H233   1.405       .  S
C237        C238   1.401       .  A
C237        C242   1.413       .  A
C238        C239   1.404   1_545  A
C238        H247   1.082       .  S
C239        C240   1.414       .  A
C239        S243   1.797       .  S
C240        C241   1.405       .  A
C241        C242   1.403   1_565  A
C241        H248   1.084       .  S
C242        S244   1.803       .  S
S243        H246   1.406       .  S
S244        H245   1.407       .  S
C249        C250   1.399       .  A
C249        C254   1.416       .  A
C250        C799   1.401       .  A
C250        H259   1.083       .  S
C251        C252   1.417       .  A
C251        C798   1.401   1_554  A
C251        S255   1.800       .  S
C252        C253   1.406       .  A
C253        C802   1.400   1_554  A
C253        H260   1.084       .  S
C254        C801   1.401       .  A
C254        S256   1.804       .  S
S255        H258   1.407       .  S
S256        H257   1.406       .  S
C261        C262   1.405       .  A
C261        C266   1.411       .  A
C262        C263   1.407   1_655  A
C262        H271   1.084       .  S
C263        C264   1.412       .  A
C263        S267   1.803       .  S
C264        C265   1.402       .  A
C265        C266   1.400   1_455  A
C265        H272   1.083       .  S
C266        S268   1.805       .  S
S267        H270   1.405       .  S
S268        H269   1.406       .  S
C273        C274   1.405       .  A
C273        C278   1.418       .  A
C274        C275   1.398   1_565  A
C274        H283   1.084       .  S
C275        C276   1.415       .  A
C275        S279   1.807       .  S
C276        C277   1.399       .  A
C277        C278   1.402   1_545  A
C277        H284   1.083       .  S
C278        S280   1.801       .  S
S279        H282   1.402       .  S
S280        H281   1.406       .  S
C285        C286   1.406       .  A
C285        C290   1.410       .  A
C286        C835   1.395       .  A
C286        H295   1.084       .  S
C287        C288   1.410       .  A
C287        C834   1.394   1_554  A
C287        S291   1.805       .  S
C288        C289   1.402       .  A
C289        C838   1.399   1_554  A
C289        H296   1.083       .  S
C290        C837   1.400       .  A
C290        S292   1.800       .  S
S291        H294   1.405       .  S
S292        H293   1.405       .  S
C297        C298   1.410       .  A
C297        C302   1.424       .  A
C298        C299   1.391       .  A
C298        H307   1.078       .  S
C299        C300   1.413       .  A
C299        S303   1.807       .  S
C300        C301   1.403       .  A
C301        C302   1.411       .  A
C301        H308   1.082       .  S
C302        S304   1.809       .  S
S303        H306   1.405       .  S
S304        H305   1.406       .  S
C309        C310   1.404       .  A
C309        C314   1.412       .  A
C310        C311   1.395       .  A
C310        H319   1.083       .  S
C311        C312   1.412       .  A
C311        S315   1.810       .  S
C312        C313   1.405       .  A
C313        C314   1.405       .  A
C313        H320   1.084       .  S
C314        S316   1.802       .  S
S315        H318   1.407       .  S
S316        H317   1.405       .  S
C321        C322   1.400       .  A
C321        C326   1.414       .  A
C322        C323   1.399   1_455  A
C322        H331   1.083       .  S
C323        C324   1.415       .  A
C323        S327   1.791       .  S
C324        C325   1.406       .  A
C325        C326   1.400   1_655  A
C325        H332   1.084       .  S
C326        S328   1.802       .  S
S327        H330   1.406       .  S
S328        H329   1.407       .  S
C333        C334   1.401       .  A
C333        C338   1.412       .  A
C334        C883   1.400       .  A
C334        H343   1.084       .  S
C335        C336   1.415       .  A
C335        C882   1.402   1_554  A
C335        S339   1.808       .  S
C336        C337   1.402       .  A
C337        C886   1.402   1_554  A
C337        H344   1.085       .  S
C338        C885   1.400       .  A
C338        S340   1.804       .  S
S339        H342   1.400       .  S
S340        H341   1.404       .  S
C345        C346   1.409       .  A
C345        C350   1.428       .  A
C346        C347   1.398       .  A
C346        H355   1.080       .  S
C347        C348   1.419       .  A
C347        S351   1.805       .  S
C348        C349   1.404       .  A
C349        C350   1.404       .  A
C349        H356   1.083       .  S
C350        S352   1.807       .  S
S351        H354   1.408       .  S
S352        H353   1.401       .  S
C357        C358   1.404       .  A
C357        C362   1.412       .  A
C358        C359   1.402       .  A
C358        H367   1.082       .  S
C359        C360   1.412       .  A
C359        S363   1.803       .  S
C360        C361   1.407       .  A
C361        C362   1.401       .  A
C361        H368   1.084       .  S
C362        S364   1.803       .  S
S363        H366   1.407       .  S
S364        H365   1.407       .  S
C369        C370   1.410       .  A
C369        C374   1.424       .  A
C370        C371   1.398   1_545  A
C370        H379   1.083       .  S
C371        C372   1.415       .  A
C371        S375   1.803       .  S
C372        C373   1.402       .  A
C373        C374   1.403   1_565  A
C373        H380   1.078       .  S
C374        S376   1.802       .  S
S375        H378   1.402       .  S
S376        H377   1.407       .  S
C381        C382   1.410       .  A
C381        C386   1.425       .  A
C382        C383   1.396       .  A
C382        H391   1.074       .  S
C383        C384   1.416       .  A
C383        S387   1.805       .  S
C384        C385   1.404       .  A
C385        C386   1.404       .  A
C385        H392   1.082       .  S
C386        S388   1.813       .  S
S387        H390   1.407       .  S
S388        H389   1.406       .  S
C393        C394   1.400       .  A
C393        C398   1.416       .  A
C394        C943   1.400       .  A
C394        H403   1.083       .  S
C395        C396   1.414       .  A
C395        C942   1.401   1_554  A
C395        S399   1.802       .  S
C396        C397   1.405       .  A
C397        C946   1.398   1_554  A
C397        H404   1.084       .  S
C398        C945   1.399       .  A
C398        S400   1.805       .  S
S399        H402   1.407   1_554  S
S400        H401   1.405       .  S
C405        C406   1.404       .  A
C405        C410   1.413       .  A
C406        C407   1.399   1_655  A
C406        H415   1.084       .  S
C407        C408   1.411       .  A
C407        S411   1.799       .  S
C408        C409   1.401       .  A
C409        C410   1.404   1_455  A
C409        H416   1.081       .  S
C410        S412   1.800       .  S
S411        H414   1.403       .  S
S412        H413   1.407       .  S
C417        C418   1.403       .  A
C417        C422   1.414       .  A
C418        C419   1.399       .  A
C418        H427   1.083       .  S
C419        C420   1.415       .  A
C419        S423   1.811       .  S
C420        C421   1.405       .  A
C421        C422   1.408       .  A
C421        H428   1.084       .  S
C422        S424   1.802       .  S
S423        H426   1.406       .  S
S424        H425   1.406       .  S
C429        C430   1.398       .  A
C429        C434   1.403       .  A
C430        C431   1.404       .  A
C430        H439   1.083       .  S
C431        C432   1.425       .  A
C431        S435   1.812       .  S
C432        C433   1.417       .  A
C433        C434   1.398       .  A
C433        H440   1.073       .  S
C434        S436   1.806       .  S
S435        H438   1.407       .  S
S436        H437   1.406       .  S
C441        C442   1.406       .  A
C441        C446   1.418       .  A
C442        C443   1.411   1_545  A
C442        H451   1.083       .  S
C443        C444   1.414       .  A
C443        S447   1.806       .  S
C444        C445   1.403       .  A
C445        C446   1.398   1_565  A
C445        H452   1.082       .  S
C446        S448   1.813       .  S
S447        H450   1.407       .  S
S448        H449   1.406       .  S
C453        C454   1.403       .  A
C453        C458   1.407       .  A
C454       C1003   1.397   1_554  A
C454        H463   1.084       .  S
C455        C456   1.412       .  A
C455       C1002   1.400       .  A
C455        S459   1.806       .  S
C456        C457   1.396       .  A
C457       C1006   1.398       .  A
C457        H464   1.081       .  S
C458       C1005   1.395   1_554  A
C458        S460   1.798       .  S
S459        H462   1.401       .  S
S460        H461   1.406       .  S
C465        C466   1.407       .  A
C465        C470   1.417       .  A
C466        C467   1.401       .  A
C466        H475   1.084       .  S
C467        C468   1.414       .  A
C467        S471   1.804       .  S
C468        C469   1.403       .  A
C469        C470   1.408       .  A
C469        H476   1.083       .  S
C470        S472   1.800       .  S
S471        H474   1.407       .  S
S472        H473   1.407       .  S
C477        C478   1.398       .  A
C477        C482   1.406       .  A
C478        C479   1.402       .  A
C478        H487   1.081       .  S
C479        C480   1.424       .  A
C479        S483   1.807       .  S
C480        C481   1.417       .  A
C481        C482   1.404       .  A
C481        H488   1.075       .  S
C482        S484   1.803       .  S
S483        H486   1.407       .  S
S484        H485   1.404       .  S
C489        C490   1.416       .  A
C489        C494   1.424       .  A
C490        C491   1.402       .  A
C490        H499   1.075       .  S
C491        C492   1.405       .  A
C491        S495   1.802       .  S
C492        C493   1.398       .  A
C493        C494   1.401       .  A
C493        H500   1.083       .  S
C494        S496   1.812       .  S
S495        H498   1.406       .  S
S496        H497   1.407       .  S
C501        C502   1.416       .  A
C501        C506   1.421       .  A
C502        C503   1.406       .  A
C502        H511   1.077       .  S
C503        C504   1.409       .  A
C503        S507   1.803       .  S
C504        C505   1.397       .  A
C505        C506   1.398       .  A
C505        H512   1.081       .  S
C506        S508   1.806       .  S
S507        H510   1.402       .  S
S508        H509   1.406       .  S
C513        C514   1.416       .  A
C513        C518   1.422       .  A
C514        C515   1.396       .  A
C514        H523   1.076       .  S
C515        C516   1.405       .  A
C515        S519   1.805       .  S
C516        C517   1.403       .  A
C517        C518   1.408       .  A
C517        H524   1.082       .  S
C518        S520   1.810       .  S
S519        H522   1.404       .  S
S520        H521   1.406       .  S
C525        C526   1.406       .  A
C525        C530   1.416       .  A
C526        C527   1.410       .  A
C526        H535   1.082       .  S
C527        C528   1.423       .  A
C527        S531   1.809       .  S
C528        C529   1.411       .  A
C529        C530   1.395       .  A
C529        H536   1.073       .  S
C530        S532   1.807       .  S
S531        H534   1.407       .  S
S532        H533   1.401       .  S
C537        C538   1.398       .  A
C537        C542   1.408       .  A
C538        C539   1.397       .  A
C538        H547   1.082       .  S
C539        C540   1.423       .  A
C539        S543   1.814       .  S
C540        C541   1.415       .  A
C541        C542   1.403       .  A
C541        H548   1.077       .  S
C542        S544   1.802       .  S
S543        H546   1.407       .  S
S544        H545   1.404       .  S
Fe549       O565   2.071       .  S
Fe549       O555   2.076       .  S
Fe549       O562   2.066       .  S
Fe549       O554   2.062       .  S
Fe549       O560   1.955       .  S
Fe550       O553   2.063       .  S
Fe550       O557   2.082       .  S
Fe550       O561   2.069       .  S
Fe550       O566   2.084       .  S
Fe550       O560   1.955       .  S
Fe551       O569   2.080       .  S
Fe551       O556   2.066       .  S
Fe551       O563   2.067       .  S
Fe551       O552   2.085       .  S
Fe551       O560   1.957       .  S
O552        C559   1.272       .  A
O553        C567   1.268       .  A
O554        C559   1.270       .  A
O555        C558   1.271       .  A
O556        C568   1.270       .  A
O557        C570   1.273       .  A
C558        O563   1.270       .  A
C558       C1040   1.472       .  S
C559       C1064   1.479       .  S
O561        C564   1.269       .  A
O562        C564   1.269       .  A
C564       C1085   1.474       .  S
O565        C570   1.273       .  A
O566        C568   1.273       .  A
C567        O569   1.271       .  A
C567       C1025   1.471       .  S
C568       C1052   1.476       .  S
C570       C1073   1.496       .  S
C571        C572   1.535       .  S
C571        C577   1.534       .  S
C571        C575   1.550       .  S
C571        C980   1.546       .  S
C572        H579   1.086       .  S
C572        C573   1.365       .  D
C573        C574   1.544       .  S
C573        C989   1.492       .  S
C574        C578   1.551       .  S
C574        C576   1.537       .  S
C574        H580   1.110       .  S
C575        H581   1.080       .  S
C575        C576   1.362       .  D
C576       C1001   1.484       .  S
C577        H582   1.086       .  S
C577        C578   1.370       .  D
C578       C1013   1.498       .  S
C583        C584   1.548       .  S
C583        C589   1.533       .  S
C583        C587   1.537       .  S
C583        C929   1.542       .  S
C584        H591   1.080       .  S
C584        C585   1.367       .  D
C585        C586   1.540       .  S
C585        C953   1.492       .  S
C586        C590   1.542       .  S
C586        C588   1.542       .  S
C586        H592   1.110       .  S
C587        H593   1.085       .  S
C587        C588   1.366       .  D
C588        C941   1.487       .  S
C589        H594   1.087       .  S
C589        C590   1.364       .  D
C590        C965   1.490       .  S
C595        C596   1.552       .  S
C595        C601   1.537       .  S
C595        C599   1.528       .  S
C595        C893   1.537       .  S
C596        H603   1.083       .  S
C596        C597   1.370       .  D
C597        C598   1.531       .  S
C597        C905   1.487       .  S
C598        C602   1.542       .  S
C598        C600   1.535       .  S
C598        H604   1.102       .  S
C599        H605   1.087       .  S
C599        C600   1.356       .  D
C600       C1004   1.463       .  S
C601        H606   1.083       .  S
C601        C602   1.373       .  D
C602        C917   1.507       .  S
C607        C608   1.538       .  S
C607        C613   1.539       .  S
C607        C611   1.550       .  S
C607       C1049   1.544       .  S
C608        H615   1.085       .  S
C608        C609   1.369       .  D
C609        C610   1.545       .  S
C609        C920   1.496       .  S
C610        C614   1.537       .  S
C610        C612   1.539       .  S
C610        H616   1.110       .  S
C611        H617   1.081       .  S
C611        C612   1.366       .  D
C612        C881   1.483       .  S
C613        H618   1.086       .  S
C613        C614   1.364       .  D
C614        C956   1.487       .  S
C619        C620   1.534       .  S
C619        C625   1.535       .  S
C619        C623   1.547       .  S
C619       C1028   1.540       .  S
C620        H627   1.086       .  S
C620        C621   1.368       .  D
C621        C622   1.541       .  S
C621        C869   1.485       .  S
C622        C626   1.540       .  S
C622        C624   1.536       .  S
C622        H628   1.110       .  S
C623        H629   1.081       .  S
C623        C624   1.364       .  D
C624        C884   1.475       .  S
C625        H630   1.086       .  S
C625        C626   1.367       .  D
C626        C992   1.491       .  S
C631        C632   1.542       .  S
C631        C637   1.531       .  S
C631        C635   1.542       .  S
C631        C845   1.541       .  S
C632        H639   1.083       .  S
C632        C633   1.359       .  D
C633        C634   1.538       .  S
C633        C857   1.482       .  S
C634        C638   1.543       .  S
C634        C636   1.545       .  S
C634        H640   1.108       .  S
C635        H641   1.085       .  S
C635        C636   1.371       .  D
C636        C944   1.491       .  S
C637        H642   1.086       .  S
C637        C638   1.367       .  D
C638        C872   1.493       .  S
C643        C644   1.536       .  S
C643        C649   1.537       .  S
C643        C647   1.550       .  S
C643       C1037   1.542       .  S
C644        H651   1.086       .  S
C644        C645   1.369       .  D
C645        C646   1.539       .  S
C645        C821   1.496       .  S
C646        C650   1.530       .  S
C646        C648   1.534       .  S
C646        H652   1.109       .  S
C647        H653   1.081       .  S
C647        C648   1.367       .  D
C648        C836   1.476       .  S
C649        H654   1.086       .  S
C649        C650   1.364       .  D
C650        C860   1.481       .  S
C655        C656   1.532       .  S
C655        C661   1.536       .  S
C655        C659   1.548       .  S
C655       C1088   1.535       .  S
C656        H663   1.087       .  S
C656        C657   1.362       .  D
C657        C658   1.538       .  S
C657        C812   1.482       .  S
C658        C662   1.540       .  S
C658        C660   1.542       .  S
C658        H664   1.110       .  S
C659        H665   1.082       .  S
C659        C660   1.370       .  D
C660        C797   1.484       .  S
C661        H666   1.086       .  S
C661        C662   1.363       .  D
C662        C908   1.487       .  S
C667        C668   1.549       .  S
C667        C673   1.541       .  S
C667        C671   1.540       .  S
C667        C764   1.553       .  S
C668        H675   1.078       .  S
C668        C669   1.367       .  D
C669        C670   1.542       .  S
C669        C785   1.495       .  S
C670        C674   1.537       .  S
C670        C672   1.538       .  S
C670        H676   1.111       .  S
C671        H677   1.086       .  S
C671        C672   1.367       .  D
C672        C773   1.480       .  S
C673        H678   1.086       .  S
C673        C674   1.367       .  D
C674        C809   1.488       .  S
C679        C680   1.535       .  S
C679        C685   1.544       .  S
C679        C683   1.541       .  S
C679       C1061   1.547       .  S
C680        H687   1.086       .  S
C680        C681   1.368       .  D
C681        C682   1.540       .  S
C681        C968   1.490       .  S
C682        C686   1.546       .  S
C682        C684   1.539       .  S
C682        H688   1.109       .  S
C683        H689   1.083       .  S
C683        C684   1.359       .  D
C684        C833   1.481       .  S
C685        H690   1.085       .  S
C685        C686   1.373       .  D
C686        C788   1.499       .  S
C691        C692   1.539       .  S
C691        C697   1.544       .  S
C691        C695   1.539       .  S
C691        C740   1.547       .  S
C692        H699   1.086       .  S
C692        C693   1.368       .  D
C693        C694   1.540       .  S
C693        C749   1.492       .  S
C694        C698   1.541       .  S
C694        C696   1.543       .  S
C694        H700   1.110       .  S
C695        H701   1.086       .  S
C695        C696   1.367       .  D
C696        C776   1.490       .  S
C697        H702   1.080       .  S
C697        C698   1.366       .  D
C698        C824   1.486       .  S
C703        C704   1.535       .  S
C703        C709   1.545       .  S
C703        C707   1.545       .  S
C703       C1076   1.550       .  S
C704        H711   1.086       .  S
C704        C705   1.369       .  D
C705        C706   1.543       .  S
C705       C1016   1.491       .  S
C706        C710   1.537       .  S
C706        C708   1.542       .  S
C706        H712   1.108       .  S
C707        H713   1.086       .  S
C707        C708   1.372       .  D
C708        C800   1.498       .  S
C709        H714   1.080       .  S
C709        C710   1.362       .  D
C710        C752   1.487       .  S
Fe715       O731   2.071       .  S
Fe715       O721   2.073       .  S
Fe715       O728   2.076       .  S
Fe715       O720   2.080       .  S
Fe715       O726   1.970       .  S
Fe716       O719   2.061       .  S
Fe716       O723   2.066       .  S
Fe716       O727   2.050       .  S
Fe716       O732   2.063       .  S
Fe716       O726   1.964       .  S
Fe717       O735   2.071       .  S
Fe717       O722   2.078       .  S
Fe717       O729   2.067       .  S
Fe717       O718   2.074       .  S
Fe717       O726   1.968       .  S
O718        C725   1.273       .  A
O719        C733   1.266       .  A
O720        C725   1.275       .  A
O721        C724   1.268       .  A
O722        C734   1.270       .  A
O723        C736   1.273       .  A
C724        O729   1.267       .  A
C724        C761   1.489       .  S
C725        C737   1.496       .  S
O727        C730   1.265       .  A
O728        C730   1.269       .  A
C730        C848   1.484       .  S
O731        C736   1.272       .  A
O732        C734   1.268       .  A
C733        O735   1.272       .  A
C733        C896   1.491       .  S
C734        C977   1.474       .  S
C736        C932   1.490       .  S
C737        C738   1.407       .  A
C737        C742   1.415       .  A
C738        C739   1.408       .  A
C738        H747   1.083       .  S
C739        C740   1.423       .  A
C739        S743   1.811       .  S
C740        C741   1.411       .  A
C741        C742   1.400       .  A
C741        H748   1.076       .  S
C742        S744   1.801       .  S
S743        H746   1.407       .  S
S744        H745   1.408       .  S
C749        C750   1.403       .  A
C749        C754   1.417       .  A
C750        C751   1.396   1_655  A
C750        H759   1.082       .  S
C751        C752   1.415       .  A
C751        S755   1.812       .  S
C752        C753   1.402       .  A
C753        C754   1.406   1_455  A
C753        H760   1.084       .  S
C754        S756   1.799       .  S
S755        H758   1.406   1_455  S
S756        H757   1.400       .  S
C761        C762   1.401       .  A
C761        C766   1.412       .  A
C762        C763   1.409       .  A
C762        H771   1.082       .  S
C763        C764   1.427       .  A
C763        S767   1.806       .  S
C764        C765   1.414       .  A
C765        C766   1.399       .  A
C765        H772   1.073       .  S
C766        S768   1.805       .  S
S767        H770   1.406       .  S
S768        H769   1.407       .  S
C773        C774   1.401       .  A
C773        C778   1.413       .  A
C774        H783   1.083       .  S
C775        C776   1.410       .  A
C775        S779   1.793       .  S
C776        C777   1.405       .  A
C777        H784   1.084       .  S
C778        S780   1.803       .  S
S779        H782   1.406       .  S
S780        H781   1.405       .  S
C785        C786   1.401       .  A
C785        C790   1.415       .  A
C786        C787   1.406   1_545  A
C786        H795   1.083       .  S
C787        C788   1.417       .  A
C787        S791   1.796       .  S
C788        C789   1.405       .  A
C789        C790   1.402   1_565  A
C789        H796   1.084       .  S
C790        S792   1.804       .  S
S791        H794   1.407       .  S
S792        H793   1.407       .  S
C797        C798   1.399       .  A
C797        C802   1.414       .  A
C798        H807   1.083       .  S
C799        C800   1.418       .  A
C799        S803   1.800       .  S
C800        C801   1.407       .  A
C801        H808   1.084       .  S
C802        S804   1.804       .  S
S803        H806   1.407       .  S
S804        H805   1.406       .  S
C809        C810   1.405       .  A
C809        C814   1.412       .  A
C810        C811   1.408   1_655  A
C810        H819   1.084       .  S
C811        C812   1.412       .  A
C811        S815   1.802       .  S
C812        C813   1.400       .  A
C813        C814   1.399   1_455  A
C813        H820   1.083       .  S
C814        S816   1.803       .  S
S815        H818   1.406       .  S
S816        H817   1.407       .  S
C821        C822   1.405       .  A
C821        C826   1.418       .  A
C822        C823   1.399   1_565  A
C822        H831   1.084       .  S
C823        C824   1.416       .  A
C823        S827   1.807       .  S
C824        C825   1.399       .  A
C825        C826   1.403   1_545  A
C825        H832   1.083       .  S
C826        S828   1.799       .  S
S827        H830   1.403       .  S
S828        H829   1.407       .  S
C833        C834   1.406       .  A
C833        C838   1.408       .  A
C834        H843   1.084       .  S
C835        C836   1.411       .  A
C835        S839   1.804       .  S
C836        C837   1.402       .  A
C837        H844   1.083       .  S
C838        S840   1.801       .  S
S839        H842   1.406       .  S
S840        H841   1.406       .  S
C845        C846   1.409       .  A
C845        C850   1.423       .  A
C846        C847   1.390       .  A
C846        H855   1.078       .  S
C847        C848   1.414       .  A
C847        S851   1.807       .  S
C848        C849   1.404       .  A
C849        C850   1.412       .  A
C849        H856   1.082       .  S
C850        S852   1.809       .  S
S851        H854   1.402       .  S
S852        H853   1.406       .  S
C857        C858   1.405       .  A
C857        C862   1.411       .  A
C858        C859   1.398       .  A
C858        H867   1.083       .  S
C859        C860   1.411       .  A
C859        S863   1.809       .  S
C860        C861   1.404       .  A
C861        C862   1.404       .  A
C861        H868   1.084       .  S
C862        S864   1.802       .  S
S863        H866   1.407       .  S
S864        H865   1.405       .  S
C869        C870   1.400       .  A
C869        C874   1.413       .  A
C870        C871   1.400   1_455  A
C870        H879   1.083       .  S
C871        C872   1.415       .  A
C871        S875   1.790       .  S
C872        C873   1.405       .  A
C873        C874   1.399   1_655  A
C873        H880   1.084       .  S
C874        S876   1.802       .  S
S875        H878   1.406       .  S
S876        H877   1.407       .  S
C881        C882   1.403       .  A
C881        C886   1.414       .  A
C882        H891   1.084       .  S
C883        C884   1.415       .  A
C883        S887   1.808       .  S
C884        C885   1.402       .  A
C885        H892   1.085       .  S
C886        S888   1.804       .  S
S887        H890   1.399       .  S
S888        H889   1.403       .  S
C893        C894   1.408       .  A
C893        C898   1.428       .  A
C894        C895   1.397       .  A
C894        H903   1.081       .  S
C895        C896   1.418       .  A
C895        S899   1.804       .  S
C896        C897   1.403       .  A
C897        C898   1.401       .  A
C897        H904   1.084       .  S
C898        S900   1.808       .  S
S899        H902   1.408       .  S
S900        H901   1.402       .  S
C905        C906   1.405       .  A
C905        C910   1.411       .  A
C906        C907   1.401       .  A
C906        H915   1.081       .  S
C907        C908   1.411       .  A
C907        S911   1.803       .  S
C908        C909   1.407       .  A
C909        C910   1.400       .  A
C909        H916   1.084       .  S
C910        S912   1.803       .  S
S911        H914   1.406       .  S
S912        H913   1.407       .  S
C917        C918   1.408       .  A
C917        C922   1.424       .  A
C918        C919   1.396   1_545  A
C918        H927   1.083       .  S
C919        C920   1.414       .  A
C919        S923   1.800       .  S
C920        C921   1.401       .  A
C921        C922   1.403   1_565  A
C921        H928   1.079       .  S
C922        S924   1.803       .  S
S923        H926   1.400       .  S
S924        H925   1.407       .  S
C929        C930   1.410       .  A
C929        C934   1.426       .  A
C930        C931   1.397       .  A
C930        H939   1.074       .  S
C931        C932   1.416       .  A
C931        S935   1.806       .  S
C932        C933   1.403       .  A
C933        C934   1.405       .  A
C933        H940   1.082       .  S
C934        S936   1.813       .  S
S935        H938   1.406       .  S
S936        H937   1.406       .  S
C941        C942   1.402       .  A
C941        C946   1.416       .  A
C942        H951   1.083       .  S
C943        C944   1.414       .  A
C943        S947   1.800       .  S
C944        C945   1.405       .  A
C945        H952   1.084       .  S
C946        S948   1.804       .  S
S947        H950   1.407       .  S
S948        H949   1.406       .  S
C953        C954   1.404       .  A
C953        C958   1.415       .  A
C954        C955   1.399   1_655  A
C954        H963   1.084       .  S
C955        C956   1.413       .  A
C955        S959   1.799       .  S
C956        C957   1.400       .  A
C957        C958   1.404   1_455  A
C957        H964   1.081       .  S
C958        S960   1.800       .  S
S959        H962   1.402       .  S
S960        H961   1.407       .  S
C965        C966   1.404       .  A
C965        C970   1.413       .  A
C966        C967   1.400       .  A
C966        H975   1.083       .  S
C967        C968   1.414       .  A
C967        S971   1.810       .  S
C968        C969   1.406       .  A
C969        C970   1.408       .  A
C969        H976   1.084       .  S
C970        S972   1.802       .  S
S971        H974   1.407       .  S
S972        H973   1.406       .  S
C977        C978   1.400       .  A
C977        C982   1.404       .  A
C978        C979   1.406       .  A
C978        H987   1.083       .  S
C979        C980   1.425       .  A
C979        S983   1.811       .  S
C980        C981   1.417       .  A
C981        C982   1.399       .  A
C981        H988   1.074       .  S
C982        S984   1.805       .  S
S983        H986   1.407       .  S
S984        H985   1.406       .  S
C989        C990   1.406       .  A
C989        C994   1.418       .  A
C990        C991   1.410   1_545  A
C990        H999   1.083       .  S
C991        C992   1.414       .  A
C991        S995   1.806       .  S
C992        C993   1.402       .  A
C993        C994   1.397   1_565  A
C993       H1000   1.082       .  S
C994        S996   1.812       .  S
S995        H998   1.407       .  S
S996        H997   1.406       .  S
C1001      C1002   1.405       .  A
C1001      C1006   1.410       .  A
C1002      H1011   1.084       .  S
C1003      C1004   1.412       .  A
C1003      S1007   1.808       .  S
C1004      C1005   1.395       .  A
C1005      H1012   1.083       .  S
C1006      S1008   1.799       .  S
S1007      H1010   1.399       .  S
S1008      H1009   1.406       .  S
C1013      C1014   1.407       .  A
C1013      C1018   1.416       .  A
C1014      C1015   1.402       .  A
C1014      H1023   1.084       .  S
C1015      C1016   1.413       .  A
C1015      S1019   1.804       .  S
C1016      C1017   1.402       .  A
C1017      C1018   1.406       .  A
C1017      H1024   1.083       .  S
C1018      S1020   1.801       .  S
S1019      H1022   1.407       .  S
S1020      H1021   1.406       .  S
C1025      C1026   1.396       .  A
C1025      C1030   1.407       .  A
C1026      C1027   1.399       .  A
C1026      H1035   1.082       .  S
C1027      C1028   1.423       .  A
C1027      S1031   1.809       .  S
C1028      C1029   1.416       .  A
C1029      C1030   1.403       .  A
C1029      H1036   1.076       .  S
C1030      S1032   1.806       .  S
S1031      H1034   1.407       .  S
S1032      H1033   1.404       .  S
C1037      C1038   1.416       .  A
C1037      C1042   1.425       .  A
C1038      C1039   1.402       .  A
C1038      H1047   1.075       .  S
C1039      C1040   1.405       .  A
C1039      S1043   1.803       .  S
C1040      C1041   1.398       .  A
C1041      C1042   1.401       .  A
C1041      H1048   1.083       .  S
C1042      S1044   1.812       .  S
S1043      H1046   1.407       .  S
S1044      H1045   1.407       .  S
C1049      C1050   1.416       .  A
C1049      C1054   1.425       .  A
C1050      C1051   1.405       .  A
C1050      H1059   1.076       .  S
C1051      C1052   1.407       .  A
C1051      S1055   1.800       .  S
C1052      C1053   1.395       .  A
C1053      C1054   1.400       .  A
C1053      H1060   1.082       .  S
C1054      S1056   1.806       .  S
S1055      H1058   1.404       .  S
S1056      H1057   1.406       .  S
C1061      C1062   1.418       .  A
C1061      C1066   1.422       .  A
C1062      C1063   1.398       .  A
C1062      H1071   1.077       .  S
C1063      C1064   1.406       .  A
C1063      S1067   1.806       .  S
C1064      C1065   1.403       .  A
C1065      C1066   1.408       .  A
C1065      H1072   1.082       .  S
C1066      S1068   1.809       .  S
S1067      H1070   1.405       .  S
S1068      H1069   1.407       .  S
C1073      C1074   1.407       .  A
C1073      C1078   1.416       .  A
C1074      C1075   1.412       .  A
C1074      H1083   1.082       .  S
C1075      C1076   1.424       .  A
C1075      S1079   1.810       .  S
C1076      C1077   1.411       .  A
C1077      C1078   1.396       .  A
C1077      H1084   1.074       .  S
C1078      S1080   1.806       .  S
S1079      H1082   1.406       .  S
S1080      H1081   1.402       .  S
C1085      C1086   1.398       .  A
C1085      C1090   1.409       .  A
C1086      C1087   1.396       .  A
C1086      H1095   1.082       .  S
C1087      C1088   1.423       .  A
C1087      S1091   1.815       .  S
C1088      C1089   1.415       .  A
C1089      C1090   1.404       .  A
C1089      H1096   1.078       .  S
C1090      S1092   1.803       .  S
S1091      H1094   1.407       .  S
S1092      H1093   1.405       .  S
