geometry optimzed in LAMMPS
_audit_creation_date              2020-11-30 
_audit_creation_method            'lammps2cif' 
_symmetry_space_group_name_H-M    'P1' 
_symmetry_Int_Tables_number       1 
_symmetry_cell_setting            triclinic 
loop_ 
_symmetry_equiv_pos_as_xyz 
  x,y,z 
_cell_length_a                    32.00362752 
_cell_length_b                    32.20655553147787 
_cell_length_c                    22.527268295480322 
_cell_angle_alpha                 90.46570393819826 
_cell_angle_beta                  89.86487454997884 
_cell_angle_gamma                 120.59078566215666 
loop_ 
_atom_site_label 
_atom_site_type_symbol 
_atom_site_fract_x 
_atom_site_fract_y 
_atom_site_fract_z 
_atom_site_charge 
O1          O  0.02314253  0.27432755  0.55633431    -0.56800
C2          C  0.97004029  0.31528238  0.73261902     0.75900
O3          O  0.92886268  0.15868483  0.69947066    -0.57900
C4          C  0.98419234  0.25483458  0.52631320     0.75800
C5          C  0.07473409  0.24295222  0.66556621     0.78200
Cd6        Cd  0.98315699  0.24399375  0.65479850     1.37500
O7          O  0.98818572  0.29075313  0.75102367    -0.56800
O8          O  0.07166866  0.27580543  0.63905141    -0.55600
C9          C  0.89778455  0.14352739  0.65780045     0.78200
O10         O  0.03612797  0.21106066  0.69037049    -0.58000
O11         O  0.96201234  0.31025960  0.67735020    -0.56400
O12         O  0.94512500  0.23498112  0.55566810    -0.56400
O13         O  0.90646873  0.17332240  0.61686057    -0.55600
O14         O  0.24992658  0.27099013  0.55629211    -0.56800
C15         C  0.28597256  0.32162546  0.72749484     0.75900
O16         O  0.12627166  0.21115855  0.69398834    -0.57900
C17         C  0.21527369  0.23740002  0.52713238     0.75800
C18         C  0.21745227  0.14972183  0.68046304     0.78200
Cd19       Cd  0.21124624  0.23917865  0.65497881     1.37500
O20         O  0.29574066  0.30808535  0.67904691    -0.56800
O21         O  0.24925828  0.18586297  0.65228721    -0.55600
C22         C  0.12058062  0.24163485  0.66502132     0.78200
O23         O  0.18337981  0.15474733  0.70126781    -0.58000
O24         O  0.24116458  0.30346187  0.73673079    -0.56400
O25         O  0.17939803  0.20662055  0.55666933    -0.56400
O26         O  0.15627632  0.27073973  0.63355054    -0.55600
O27         O  0.29502650  0.00206798  0.71158795    -0.56800
C28         C  0.22547344  0.00490205  0.55232529     0.75900
O29         O  0.13509258  0.95547326  0.72347334    -0.57900
C30         C  0.30106779  0.02160043  0.76232406     0.75800
C31         C  0.21939430  0.10397302  0.68547945     0.78200
Cd32       Cd  0.22025837  0.01020926  0.68252585     1.37500
O33         O  0.26187539  0.01435697  0.58426763    -0.56800
O34         O  0.25183305  0.09901464  0.65969716    -0.55600
C35         C  0.13072004  0.91631325  0.70445440     0.78200
O36         O  0.18807592  0.06688744  0.71315421    -0.58000
O37         O  0.18785258  0.99724452  0.58000099    -0.56400
O38         O  0.26754069  0.02975907  0.77732032    -0.56400
O39         O  0.16801545  0.92001426  0.67987898    -0.55600
O40         O  0.98489912  0.73782737  0.59080441    -0.56800
C41         C  0.97767570  0.69820820  0.76810321     0.75900
O42         O  0.04540638  0.86455957  0.72824470    -0.57900
C43         C  0.98928457  0.77245926  0.55960499     0.75800
C44         C  0.89674696  0.77963639  0.68664097     0.78200
Cd45       Cd  0.98965914  0.77923725  0.68859675     1.37500
O46         O  0.00227651  0.70879334  0.72063976    -0.56800
O47         O  0.90425523  0.75036388  0.65743868    -0.55600
C48         C  0.08406533  0.86937171  0.70605014     0.78200
O49         O  0.93136524  0.80850734  0.72041900    -0.58000
O50         O  0.96199836  0.72649397  0.77934488    -0.56400
O51         O  0.99553619  0.80928171  0.58762921    -0.56400
O52         O  0.07993041  0.83209714  0.68126314    -0.55600
O53         O  0.71398651  0.73447290  0.56711523    -0.56800
C54         C  0.68341911  0.68946714  0.74029930     0.75900
O55         O  0.84058851  0.80840033  0.70708389    -0.57900
C56         C  0.74678448  0.76759134  0.53584058     0.75800
C57         C  0.74782392  0.86208321  0.67452623     0.78200
Cd58       Cd  0.75375924  0.77322741  0.66426889     1.37500
O59         O  0.69689874  0.68484824  0.68899207    -0.56800
O60         O  0.71630581  0.82466367  0.64705792    -0.55600
C61         C  0.84995872  0.77925398  0.68033820     0.78200
O62         O  0.77996787  0.85773065  0.70200185    -0.58000
O63         O  0.69595377  0.73254961  0.75340921    -0.56400
O64         O  0.78113969  0.80231509  0.56359888    -0.56400
O65         O  0.81601696  0.74830659  0.64795757    -0.55600
O66         O  0.69683163  0.03314753  0.66531117    -0.56800
C67         C  0.75101924  0.00072112  0.52105709     0.75900
O68         O  0.84382080  0.06045644  0.68973460    -0.57900
C69         C  0.69225208  0.02806310  0.72107354     0.75800
C70         C  0.74868836  0.90888566  0.67100527     0.78200
Cd71       Cd  0.75677744  0.00396805  0.64952488     1.37500
O72         O  0.71414585  0.99207860  0.55164271    -0.56800
O73         O  0.71738100  0.91309639  0.64153890    -0.55600
C74         C  0.85215382  0.09559394  0.65671967     0.78200
O75         O  0.78218269  0.94761781  0.69411723    -0.58000
O76         O  0.78824066  0.00830540  0.54955111    -0.56400
O77         O  0.71217794  0.00612139  0.74286925    -0.56400
O78         O  0.81787707  0.08817775  0.62242051    -0.55600
O79         O  0.31044003  0.02359756  0.32429802    -0.56800
C80         C  0.22594314  0.00360608  0.48650739     0.75900
O81         O  0.19448179  0.05481222  0.30376343    -0.57900
C82         C  0.29559256  0.99132249  0.28427889     0.75800
C83         C  0.12747539  0.90937720  0.34698613     0.78200
Cd84       Cd  0.22218730  0.00275284  0.35583728     1.37500
O85         O  0.26169717  0.00877156  0.45621409    -0.56800
O86         O  0.16294731  0.91545198  0.37837009    -0.55600
C87         C  0.22306069  0.09343786  0.33143255     0.78200
O88         O  0.13539263  0.94562473  0.31634448    -0.58000
O89         O  0.18978571  0.99775955  0.45708048    -0.56400
O90         O  0.25000318  0.96927669  0.27610731    -0.56400
O91         O  0.25245159  0.09091868  0.36639528    -0.55600
O92         O  0.98382087  0.73650264  0.46352754    -0.56800
C93         C  0.99266143  0.70045622  0.29533241     0.75900
O94         O  0.92838778  0.80218901  0.32414989    -0.57900
C95         C  0.98657181  0.77089676  0.49424245     0.75800
C96         C  0.07937720  0.86312052  0.34899961     0.78200
Cd97       Cd  0.98260847  0.77252510  0.36522953     1.37500
O98         O  0.97380536  0.68883942  0.34634769    -0.56800
O99         O  0.07295160  0.82834442  0.38122494    -0.55600
C100        C  0.88843953  0.76643310  0.34053866     0.78200
O101        O  0.04191317  0.85633508  0.32123197    -0.58000
O102        O  0.99908497  0.74038084  0.27672697    -0.56400
O103        O  0.98650342  0.80454999  0.46579615    -0.56400
O104        O  0.89151031  0.73312756  0.36563871    -0.55600
O105        O  0.66401873  0.69623096  0.33202411    -0.56800
C106        C  0.74622400  0.76656040  0.47064530     0.75900
O107        O  0.83749961  0.79824794  0.31103465    -0.57900
C108        C  0.66258115  0.69359221  0.27617735     0.75800
C109        C  0.75032625  0.85953786  0.31858846     0.78200
Cd110      Cd  0.75016995  0.76750279  0.34212009     1.37500
O111        O  0.71566055  0.73032731  0.44074666    -0.56800
O112        O  0.72211362  0.82742261  0.35450842    -0.55600
C113        C  0.84122354  0.76471496  0.33461971     0.78200
O114        O  0.77797834  0.84926744  0.28965366    -0.58000
O115        O  0.77739656  0.80238955  0.44150222    -0.56400
O116        O  0.70430575  0.71666006  0.25259462    -0.56400
O117        O  0.80243861  0.73060612  0.35611714    -0.55600
O118        O  0.25148088  0.26225348  0.43072182    -0.56800
C119        C  0.27604848  0.31087016  0.26577967     0.75900
O120        O  0.18878498  0.14088936  0.29687173    -0.57900
C121        C  0.21558656  0.23345269  0.46231378     0.75800
C122        C  0.11493678  0.21824430  0.32734317     0.78200
Cd123      Cd  0.21000031  0.22377980  0.33524031     1.37500
O124        O  0.27215686  0.31008139  0.32174996    -0.56800
O125        O  0.14792987  0.24370890  0.36417097    -0.55600
C126        C  0.22078313  0.13827961  0.32697104     0.78200
O127        O  0.12474345  0.19406114  0.29103448    -0.58000
O128        O  0.25437628  0.26963860  0.24089788    -0.56400
O129        O  0.17904929  0.20028830  0.43534425    -0.56400
O130        O  0.24947442  0.17573967  0.35636768    -0.55600
O131        O  0.00447447  0.32056953  0.31729825    -0.56800
C132        C  0.98418099  0.25177097  0.46086000     0.75900
O133        O  0.93326593  0.14799902  0.30045707    -0.57900
C134        C  0.00063689  0.32095962  0.26168416     0.75800
C135        C  0.06897734  0.21913333  0.32784403     0.78200
Cd136      Cd  0.98518150  0.23497621  0.33338285     1.37500
O137        O  0.02323655  0.26961997  0.43156547    -0.56800
O138        O  0.05872344  0.23677468  0.37187250    -0.55600
C139        C  0.89352828  0.14274745  0.31909258     0.78200
O140        O  0.03963377  0.20627762  0.28449841    -0.58000
O141        O  0.94525530  0.22822324  0.43125982    -0.56400
O142        O  0.98645493  0.27993379  0.23821496    -0.56400
O143        O  0.89563411  0.17998533  0.34125000    -0.55600
O144        O  0.72582382  0.02954229  0.23731082    -0.56800
C145        C  0.75188834  0.00230547  0.45577501     0.75900
O146        O  0.78167837  0.94234283  0.28345788    -0.57900
C147        C  0.68161300  0.00463949  0.25216074     0.75800
C148        C  0.84751769  0.09565278  0.31800727     0.78200
Cd149      Cd  0.75742734  0.00267890  0.32714594     1.37500
O150        O  0.71675495  0.99765491  0.42477673    -0.56800
O151        O  0.81000480  0.09045649  0.34386540    -0.55600
C152        C  0.75171598  0.90678964  0.31459408     0.78200
O153        O  0.84358430  0.05812441  0.29356354    -0.58000
O154        O  0.78893385  0.00884306  0.42768818    -0.56400
O155        O  0.67468690  0.98499778  0.30266718    -0.56400
O156        O  0.72363463  0.91458432  0.34585066    -0.55600
C157        C  0.63835154  0.98757342  0.20848506    -0.01500
C158        C  0.32628241  0.97188351  0.25376274    -0.01500
C159        C  0.01898829  0.67731555  0.26381663    -0.01500
C160        C  0.01827449  0.36826914  0.22469732    -0.01500
C161        C  0.29559841  0.35893330  0.23195508    -0.01500
C162        C  0.61381880  0.66971967  0.23955737    -0.01500
C163        C  0.96391472  0.65231628  0.80651606    -0.01500
C164        C  0.95297913  0.34284996  0.77565272    -0.01500
C165        C  0.34956772  0.04497655  0.79839486    -0.01500
C166        C  0.67549083  0.05724272  0.76010322    -0.01500
C167        C  0.65859409  0.64549501  0.78372087    -0.01500
C168        C  0.32471037  0.34511333  0.77718515    -0.01500
C169        C  0.42171246  0.46937444  0.70135836    -0.04400
C170        C  0.46405588  0.48294310  0.73548606     0.09700
C171        C  0.45999569  0.45229232  0.78261995    -0.01800
C172        C  0.41527754  0.41081764  0.79702692    -0.00100
C173        C  0.37248015  0.39510751  0.76145447    -0.03700
C174        C  0.37637157  0.42669780  0.71459708     0.03300
C175        C  0.51343579  0.52840987  0.72336971     0.10200
C176        C  0.50269210  0.46123162  0.81549949     0.36100
C177        C  0.33366179  0.41800748  0.68209576     0.39500
C178        C  0.52210664  0.57593107  0.73166370    -0.04100
C179        C  0.57037411  0.61536001  0.74209727     0.03100
C180        C  0.60976006  0.60687396  0.75019998    -0.03700
C181        C  0.60203215  0.56287677  0.72335643     0.00100
C182        C  0.55428979  0.52407988  0.71127137    -0.02400
C183        C  0.48148989  0.58364193  0.73781855     0.36800
C184        C  0.64171435  0.55811735  0.70047174     0.40400
C185        C  0.57798290  0.66327083  0.75188970     0.39600
C186        C  0.54676179  0.47888427  0.68685923     0.36500
C187        C  0.42506501  0.49833327  0.65067893     0.37200
C188        C  0.41430295  0.38371242  0.84908687     0.40400
N189        N  0.58396788  0.70152521  0.75932628    -0.37700
N190        N  0.44924026  0.59010153  0.74295646    -0.39200
N191        N  0.67178495  0.55244939  0.68039505    -0.37000
N192        N  0.54067948  0.44284454  0.66741557    -0.39400
N193        N  0.53591139  0.46574313  0.84134378    -0.39100
N194        N  0.41399383  0.36229677  0.89026260    -0.36800
N195        N  0.29976069  0.41179280  0.65610183    -0.37800
N196        N  0.42757100  0.52144089  0.61025694    -0.39500
C197        C  0.36949986  0.16726287  0.73817804    -0.04400
C198        C  0.37688422  0.19386327  0.79076779     0.09700
C199        C  0.37815504  0.17434296  0.84542005    -0.01800
C200        C  0.36109073  0.12490293  0.84857252    -0.00100
C201        C  0.36097108  0.09870091  0.79689487    -0.03700
C202        C  0.36451069  0.12142726  0.74049267     0.03300
C203        C  0.36598971  0.23324333  0.79078204     0.10200
C204        C  0.38729586  0.20282405  0.89940482     0.36100
C205        C  0.36429603  0.09887108  0.68409056     0.39500
C206        C  0.31921504  0.22203694  0.80781606    -0.04100
C207        C  0.30474573  0.25621064  0.80155301     0.03100
C208        C  0.33837467  0.30416326  0.78093159    -0.03700
C209        C  0.38078064  0.30906551  0.75147747     0.00100
C210        C  0.39712006  0.27700187  0.76326589    -0.02400
C211        C  0.28395535  0.17301715  0.82643047     0.36800
C212        C  0.40278124  0.34022042  0.70055244     0.40400
C213        C  0.25267629  0.23599647  0.80368028     0.39600
C214        C  0.44436225  0.28705081  0.74242764     0.36500
C215        C  0.36441571  0.18598802  0.68180552     0.37200
C216        C  0.33261176  0.10142142  0.90065939     0.40400
N217        N  0.21067840  0.21568772  0.80500477    -0.37700
N218        N  0.25575751  0.13406894  0.84040252    -0.39200
N219        N  0.42048764  0.36419248  0.65939924    -0.37000
N220        N  0.48191291  0.29495158  0.72570213    -0.39400
N221        N  0.39440581  0.22553078  0.94226572    -0.39100
N222        N  0.30928525  0.08421921  0.94243606    -0.36800
N223        N  0.36497130  0.08202812  0.63876469    -0.37800
N224        N  0.36000273  0.20073691  0.63703271    -0.39500
C225        C  0.47888395  0.06956559  0.74214390    -0.04400
C226        C  0.47418504  0.02440574  0.75244010     0.09700
C227        C  0.42751755  0.98507646  0.76396475    -0.01800
C228        C  0.38657277  0.99140735  0.76825526    -0.00100
C229        C  0.39190002  0.03849285  0.76919858    -0.03700
C230        C  0.44000945  0.07774734  0.75349400     0.03300
C231        C  0.52016581  0.02184401  0.75929706     0.10200
C232        C  0.42201349  0.93825892  0.77501070     0.36100
C233        C  0.45478286  0.12851108  0.75412916     0.39500
C234        C  0.55294022  0.04960536  0.80438717    -0.04100
C235        C  0.60240149  0.06391292  0.80016026     0.03100
C236        C  0.61930723  0.04150741  0.75865474    -0.03700
C237        C  0.58303088  0.00632908  0.71907011     0.00100
C238        C  0.53511609  0.99932847  0.71722146    -0.02400
C239        C  0.53600244  0.06562692  0.85461193     0.36800
C240        C  0.59371435  0.97842654  0.67767158     0.40400
C241        C  0.63527264  0.10509695  0.83654061     0.39600
C242        C  0.50142829  0.96982348  0.67088026     0.36500
C243        C  0.52627948  0.10990715  0.72555758     0.37200
C244        C  0.33930126  0.94845211  0.77462372     0.40400
N245        N  0.65881252  0.13864131  0.86604171    -0.37700
N246        N  0.52313215  0.07806774  0.89547277    -0.39200
N247        N  0.60033128  0.95485060  0.64428190    -0.37000
N248        N  0.47446789  0.94618105  0.63399091    -0.39400
N249        N  0.41773979  0.90096944  0.78407507    -0.39100
N250        N  0.30249673  0.91279402  0.77863990    -0.36800
N251        N  0.46996724  0.16974810  0.75439979    -0.37800
N252        N  0.56351091  0.14305884  0.71378884    -0.39500
C253        C  0.80811058  0.27611412  0.78247188    -0.04400
C254        C  0.79836105  0.26264693  0.72312824     0.09700
C255        C  0.83378648  0.29095806  0.68199477    -0.01800
C256        C  0.88159223  0.32346271  0.70158234    -0.00100
C257        C  0.89644722  0.32059193  0.76159802    -0.03700
C258        C  0.85653889  0.29852416  0.80309164     0.03300
C259        C  0.76650691  0.20996089  0.71139285     0.11400
C260        C  0.82146333  0.28335800  0.61941094     0.36100
C261        C  0.86060931  0.29457997  0.86599414     0.39500
C262        C  0.71604842  0.18781382  0.70731744    -0.04100
C263        C  0.68746245  0.13714643  0.71006817     0.03100
C264        C  0.70737679  0.10999757  0.73499209    -0.03700
C265        C  0.75905422  0.13214353  0.73051724     0.00100
C266        C  0.78736400  0.18072348  0.71402985    -0.02400
C267        C  0.69380214  0.21682225  0.69882749     0.36800
C268        C  0.78453574  0.10894088  0.75320716     0.40400
C269        C  0.64302433  0.11453274  0.67572070     0.39600
C270        C  0.83887822  0.20210927  0.70542416     0.36500
C271        C  0.76747727  0.26279114  0.82222937     0.37200
C272        C  0.91348821  0.35808408  0.65811181     0.40400
N273        N  0.60873789  0.09743271  0.64594674    -0.37700
N274        N  0.67606798  0.24010922  0.69267861    -0.39200
N275        N  0.80470362  0.09186969  0.77553249    -0.37000
N276        N  0.88013339  0.22060369  0.69765416    -0.39400
N277        N  0.81148273  0.27705805  0.56951329    -0.39100
N278        N  0.93632339  0.38468294  0.62094259    -0.36800
N279        N  0.85867627  0.28744311  0.91639694    -0.37800
N280        N  0.73522236  0.25274661  0.85389910    -0.39500
C281        C  0.83374186  0.62815211  0.84663976    -0.04400
C282        C  0.80345063  0.59020077  0.80851218     0.09700
C283        C  0.82185451  0.56493445  0.77844419    -0.01800
C284        C  0.87152733  0.57934708  0.78379688    -0.00100
C285        C  0.90588017  0.62563958  0.80990470    -0.03700
C286        C  0.88422591  0.64787746  0.84485677     0.03300
C287        C  0.75725617  0.58691064  0.79005794     0.10200
C288        C  0.78870237  0.52277211  0.74356773     0.36100
C289        C  0.91216928  0.69141666  0.88056750     0.39500
C290        C  0.76257077  0.62169970  0.74943526    -0.04100
C291        C  0.74035363  0.64812534  0.76281855     0.03100
C292        C  0.69449881  0.62559634  0.79173603    -0.03700
C293        C  0.68373183  0.58408940  0.82654525     0.00100
C294        C  0.71675416  0.56684245  0.82793445    -0.02400
C295        C  0.80051614  0.63907417  0.70497346     0.36800
C296        C  0.64286522  0.56179314  0.86616356     0.40400
C297        C  0.77479690  0.69786193  0.77643467     0.39600
C298        C  0.71063968  0.53007584  0.86960719     0.36500
C299        C  0.81273050  0.64930225  0.88510531     0.37200
C300        C  0.88184803  0.54120644  0.77232552     0.40400
N301        N  0.80522768  0.73578903  0.79112047    -0.37700
N302        N  0.83038338  0.65161027  0.66913422    -0.39200
N303        N  0.61233697  0.54289098  0.90087872    -0.37000
N304        N  0.70584756  0.50075081  0.90282931    -0.39400
N305        N  0.76215184  0.48905804  0.71601005    -0.39100
N306        N  0.88590889  0.50777143  0.76534203    -0.36800
N307        N  0.93239957  0.72621920  0.90912526    -0.37800
N308        N  0.79606710  0.66595521  0.91592956    -0.39500
C309        C  0.03839678  0.58634381  0.78667252    -0.04400
C310        C  0.00884671  0.55036827  0.74543984     0.09700
C311        C  0.98074225  0.56081493  0.70673765    -0.01800
C312        C  0.97288103  0.59987201  0.71990228    -0.00100
C313        C  0.98803927  0.62431051  0.77591975    -0.03700
C314        C  0.02927008  0.62395079  0.80077461     0.03300
C315        C  0.99983099  0.49943421  0.75240275     0.10200
C316        C  0.95596128  0.52861947  0.65724135     0.36100
C317        C  0.06667787  0.66436867  0.83420848     0.39500
C318        C  0.97571274  0.47368511  0.80352337    -0.04100
C319        C  0.95982730  0.42424101  0.80897877     0.03100
C320        C  0.97375615  0.39941401  0.76715101    -0.03700
C321        C  0.00658879  0.42906476  0.72141223     0.00100
C322        C  0.01656315  0.47728826  0.71206643    -0.02400
C323        C  0.97152855  0.49922717  0.85460528     0.36800
C324        C  0.03234781  0.41207062  0.68515211     0.40400
C325        C  0.93314189  0.40217980  0.86287822     0.39600
C326        C  0.04630648  0.50516500  0.66255808     0.36500
C327        C  0.07651312  0.58288102  0.81697651     0.37200
C328        C  0.94522173  0.61090841  0.67865872     0.40400
N329        N  0.91450459  0.39055642  0.90872148    -0.37700
N330        N  0.97077028  0.51870327  0.89755944    -0.39200
N331        N  0.05400967  0.39979135  0.65602287    -0.37000
N332        N  0.07001030  0.52744684  0.62296304    -0.39400
N333        N  0.93596947  0.50260215  0.61797210    -0.39100
N334        N  0.92309195  0.61957098  0.64564211    -0.36800
N335        N  0.09849818  0.69571470  0.86000096    -0.37800
N336        N  0.10673566  0.58003198  0.84136328    -0.39500
C337        C  0.62873615  0.62438055  0.07938309    -0.04400
C338        C  0.65031676  0.66718749  0.04669306     0.09700
C339        C  0.66550972  0.71075899  0.07740875    -0.01800
C340        C  0.65911016  0.71101370  0.13969123    -0.00100
C341        C  0.62865948  0.66682587  0.17190691    -0.03700
C342        C  0.61087001  0.62333610  0.13708283     0.03300
C343        C  0.65083112  0.66524157  0.97952134     0.10200
C344        C  0.68676505  0.75557283  0.04454973     0.36100
C345        C  0.56669525  0.57878117  0.14962812     0.39500
C346        C  0.60709445  0.64046026  0.94750324    -0.04100
C347        C  0.60719467  0.63324120  0.88516059     0.03100
C348        C  0.65114484  0.65956897  0.85031614    -0.03700
C349        C  0.69277771  0.69338127  0.88488298     0.00100
C350        C  0.69406582  0.68970419  0.94726530    -0.02400
C351        C  0.56110911  0.61846918  0.97925668     0.36800
C352        C  0.72975571  0.73922943  0.86199597     0.40400
C353        C  0.56170795  0.59364232  0.86374879     0.39600
C354        C  0.74027397  0.71322249  0.97839929     0.36500
C355        C  0.62087166  0.58001156  0.05178911     0.37200
C356        C  0.68189753  0.75790594  0.16883116     0.40400
N357        N  0.52337407  0.56079766  0.85524259    -0.37700
N358        N  0.52350078  0.59928500  0.00196548    -0.39200
N359        N  0.75860120  0.77803373  0.84816886    -0.37000
N360        N  0.77698735  0.73180673  0.00346723    -0.39400
N361        N  0.70392615  0.79102778  0.01781768    -0.39100
N362        N  0.70145246  0.79471443  0.19339941    -0.36800
N363        N  0.53109761  0.54189885  0.15256960    -0.37800
N364        N  0.61463217  0.54422436  0.03132833    -0.39500
C365        C  0.33101020  0.39457327  0.93698361    -0.04400
C366        C  0.30323689  0.34997357  0.96619761     0.09700
C367        C  0.26961857  0.31009501  0.93200973    -0.01800
C368        C  0.26541894  0.31559001  0.87069748    -0.00100
C369        C  0.30476350  0.35319082  0.83956145    -0.03700
C370        C  0.32951099  0.39678277  0.87405951     0.03300
C371        C  0.29846538  0.34837363  0.03292770     0.10200
C372        C  0.23425625  0.26587360  0.96079333     0.36100
C373        C  0.34744013  0.44354094  0.84697833     0.39500
C374        C  0.26557218  0.35936078  0.05909922    -0.04100
C375        C  0.26246638  0.36204821  0.12165514     0.03100
C376        C  0.29020458  0.34977916  0.16131055    -0.03700
C377        C  0.31940922  0.33345019  0.13226580     0.00100
C378        C  0.32509604  0.33511850  0.06947443    -0.02400
C379        C  0.23544104  0.36962268  0.02037496     0.36800
C380        C  0.34449196  0.31452527  0.16585846     0.40400
C381        C  0.23233098  0.38105146  0.14032361     0.39600
C382        C  0.35927197  0.32390212  0.04205966     0.36500
C383        C  0.36004717  0.43817687  0.97165811     0.37200
C384        C  0.21681847  0.30147050  0.85131613     0.40400
N385        N  0.20722022  0.39640265  0.14940163    -0.37700
N386        N  0.21148984  0.37765580  0.98969718    -0.39200
N387        N  0.36453633  0.29806771  0.18991059    -0.37000
N388        N  0.38687162  0.31539987  0.02022101    -0.39400
N389        N  0.20609025  0.23060481  0.98390107    -0.39100
N390        N  0.17774551  0.29039901  0.83702368    -0.36800
N391        N  0.36160059  0.48115470  0.82626215    -0.37800
N392        N  0.38323689  0.47291299  0.99942477    -0.39500
C393        C  0.43160230  0.43180205  0.29564343    -0.04400
C394        C  0.44941173  0.47723445  0.26907644     0.09700
C395        C  0.41954008  0.48186654  0.22665936    -0.01800
C396        C  0.37152774  0.44418111  0.21546073    -0.00100
C397        C  0.35166983  0.39795810  0.24300106    -0.03700
C398        C  0.38457753  0.39196272  0.28095167     0.03300
C399        C  0.49584638  0.52261436  0.28943958     0.10200
C400        C  0.43654481  0.52752788  0.19675964     0.36100
C401        C  0.37186222  0.34603656  0.30694085     0.39500
C402        C  0.54331388  0.53181445  0.27798735    -0.04100
C403        C  0.58304566  0.58046558  0.27383193     0.03100
C404        C  0.57400145  0.61959553  0.26877362    -0.03700
C405        C  0.52665275  0.60883635  0.29063158     0.00100
C406        C  0.49172809  0.56174611  0.30855091    -0.02400
C407        C  0.55071237  0.49213924  0.26360416     0.36800
C408        C  0.50813990  0.64167895  0.29113721     0.40400
C409        C  0.63164644  0.58882170  0.26552926     0.39600
C410        C  0.44760384  0.55274682  0.33867272     0.36500
C411        C  0.46057709  0.42662894  0.34117398     0.37200
C412        C  0.34226127  0.45666535  0.17892845     0.40400
N413        N  0.67043988  0.59537027  0.25917929    -0.37700
N414        N  0.55683879  0.46061366  0.25169796    -0.39200
N415        N  0.49036142  0.66529180  0.29211389    -0.37000
N416        N  0.41335001  0.54760617  0.36279159    -0.39400
N417        N  0.44799601  0.56340469  0.17294696    -0.39100
N418        N  0.32246402  0.47111123  0.15034378    -0.36800
N419        N  0.36334060  0.30988537  0.32804335    -0.37800
N420        N  0.48355026  0.42234530  0.37756598    -0.39500
C421        C  0.02885643  0.33086863  0.05922243    -0.04400
C422        C  0.98981609  0.33210750  0.03232747     0.09700
C423        C  0.95395208  0.33107204  0.06985190    -0.01800
C424        C  0.96046713  0.33473355  0.13222786    -0.00100
C425        C  0.00667749  0.34861850  0.15789503    -0.03700
C426        C  0.03635208  0.33724460  0.12171163     0.03300
C427        C  0.98540905  0.33190849  0.96530758     0.10200
C428        C  0.91091396  0.32849123  0.04546021     0.36100
C429        C  0.07245707  0.32834855  0.14671924     0.39500
C430        C  0.95464977  0.28909358  0.93347523    -0.04100
C431        C  0.94705384  0.29034121  0.87124306     0.03100
C432        C  0.96860330  0.33542341  0.84053788    -0.03700
C433        C  0.01039080  0.37347519  0.86992685     0.00100
C434        C  0.01556036  0.37356848  0.93219136    -0.02400
C435        C  0.93121504  0.24365980  0.96490895     0.36800
C436        C  0.05137829  0.41021889  0.83678788     0.40400
C437        C  0.91626632  0.24486286  0.84107468     0.39600
C438        C  0.05311177  0.41699516  0.96082537     0.36500
C439        C  0.06062541  0.32166253  0.02242332     0.37200
C440        C  0.91863060  0.32260222  0.16920428     0.40400
N441        N  0.89168532  0.20705039  0.82038585    -0.37700
N442        N  0.91307994  0.20747411  0.99013551    -0.39200
N443        N  0.08512434  0.43983196  0.81220736    -0.37000
N444        N  0.08393769  0.45306494  0.98000217    -0.39400
N445        N  0.87596592  0.32728813  0.02962608    -0.39100
N446        N  0.88435783  0.31204503  0.19728001    -0.36800
N447        N  0.10169722  0.31947845  0.16083839    -0.37800
N448        N  0.08560751  0.31382906  0.99310914    -0.39500
C449        C  0.18037377  0.36455538  0.27899518    -0.04400
C450        C  0.20076490  0.41371051  0.29243524     0.09700
C451        C  0.25063212  0.44102330  0.30401128    -0.01800
C452        C  0.27945978  0.41969549  0.29559381    -0.00100
C453        C  0.26179466  0.37697959  0.25963338    -0.03700
C454        C  0.20979097  0.34690229  0.25777093     0.03300
C455        C  0.16905949  0.43515879  0.28666958     0.10200
C456        C  0.27123270  0.48909525  0.32886781     0.36100
C457        C  0.18568898  0.30082068  0.22655707     0.39500
C458        C  0.13189978  0.42332090  0.32746759    -0.04100
C459        C  0.08584970  0.41303858  0.30703540     0.03100
C460        C  0.07359585  0.40341122  0.24459392    -0.03700
C461        C  0.11505278  0.42847220  0.20641666     0.00100
C462        C  0.16261335  0.44757900  0.22963756    -0.02400
C463        C  0.14007643  0.41768101  0.38940924     0.36800
C464        C  0.11234336  0.43688655  0.14438063     0.40400
C465        C  0.05338675  0.41352220  0.35156790     0.39600
C466        C  0.20546443  0.47940777  0.19541110     0.36500
C467        C  0.12854104  0.33341149  0.28330583     0.37200
C468        C  0.31987309  0.43453356  0.33580793     0.40400
N469        N  0.03004020  0.41502555  0.38992679    -0.37700
N470        N  0.14653397  0.41284528  0.43875493    -0.39200
N471        N  0.11544925  0.44494112  0.09417034    -0.37000
N472        N  0.23974105  0.50534995  0.16856665    -0.39400
N473        N  0.28766688  0.52748199  0.34891289    -0.39100
N474        N  0.35057630  0.44485097  0.37005807    -0.36800
N475        N  0.16612336  0.26513145  0.19960133    -0.37800
N476        N  0.08686201  0.31069440  0.28723917    -0.39500
C477        C  0.04188545  0.66984245  0.09305694    -0.04400
C478        C  0.00827458  0.67919620  0.06602649     0.09700
C479        C  0.97382818  0.68239797  0.10128241    -0.01800
C480        C  0.97323249  0.67723168  0.16382410    -0.00100
C481        C  0.01034760  0.67216872  0.19373577    -0.03700
C482        C  0.04338103  0.66651662  0.15558958     0.03300
C483        C  0.00159104  0.67415862  0.99985513     0.10200
C484        C  0.93827013  0.69080612  0.07222324     0.36100
C485        C  0.08144683  0.65923952  0.17776861     0.39500
C486        C  0.96937913  0.62849241  0.97678907    -0.04100
C487        C  0.95875209  0.62174503  0.91568440     0.03100
C488        C  0.98062367  0.66139038  0.87442938    -0.03700
C489        C  0.01543234  0.70773787  0.89920748     0.00100
C490        C  0.02572576  0.71348536  0.96120989    -0.02400
C491        C  0.94548931  0.58794514  0.01757837     0.36800
C492        C  0.04231438  0.74998236  0.86239394     0.40400
C493        C  0.92085976  0.57345601  0.89974138     0.39600
C494        C  0.06176809  0.75994504  0.98561834     0.36500
C495        C  0.07489079  0.66283133  0.05543619     0.37200
C496        C  0.93375085  0.67802516  0.19442906     0.40400
N497        N  0.88915220  0.53402067  0.89515744    -0.37700
N498        N  0.92649039  0.55606862  0.05022991    -0.39200
N499        N  0.06446093  0.78433026  0.83420110    -0.37000
N500        N  0.09085023  0.79689414  0.00501675    -0.39400
N501        N  0.91011612  0.69764928  0.04904972    -0.39100
N502        N  0.90209031  0.68014993  0.21627601    -0.36800
N503        N  0.11330427  0.65304609  0.18772297    -0.37800
N504        N  0.10091311  0.65702241  0.02542692    -0.39500
C505        C  0.94552459  0.53625144  0.27846869    -0.04400
C506        C  0.98125173  0.52433376  0.28973783     0.09700
C507        C  0.02738375  0.56114361  0.30723499    -0.01800
C508        C  0.04108819  0.61040112  0.30198453    -0.00100
C509        C  0.00592913  0.62457023  0.28618112    -0.03700
C510        C  0.95679952  0.58513391  0.28104911     0.03300
C511        C  0.97631754  0.47739778  0.26825787     0.10200
C512        C  0.06277108  0.54763285  0.32453205     0.36100
C513        C  0.91635869  0.59319404  0.27993483     0.39500
C514        C  0.99690493  0.47771176  0.21338416    -0.04100
C515        C  0.00561446  0.44042841  0.19724771     0.03100
C516        C  0.99426300  0.40082739  0.23627140    -0.03700
C517        C  0.96366813  0.39619263  0.28561222     0.00100
C518        C  0.95739696  0.43550129  0.30310693    -0.02400
C519        C  0.00979380  0.51756680  0.17296425     0.36800
C520        C  0.93732101  0.35167352  0.31839667     0.40400
C521        C  0.02023024  0.44167839  0.13635864     0.39600
C522        C  0.93244866  0.43344821  0.35770328     0.36500
C523        C  0.89734231  0.49801194  0.26149045     0.37200
C524        C  0.09279950  0.64318533  0.30919917     0.40400
N525        N  0.02845249  0.44431349  0.08610876    -0.37700
N526        N  0.01975716  0.54875579  0.14026726    -0.39200
N527        N  0.91525399  0.31652480  0.34522007    -0.37000
N528        N  0.91255184  0.43187813  0.40133770    -0.39400
N529        N  0.09075358  0.53670027  0.33781447    -0.39100
N530        N  0.13452349  0.66620847  0.31519585    -0.36800
N531        N  0.88197392  0.59639751  0.28151795    -0.37800
N532        N  0.85903417  0.46741344  0.24758253    -0.39500
C533        C  0.35762355  0.96912502  0.08350697    -0.04400
C534        C  0.33218384  0.98799968  0.05444298     0.09700
C535        C  0.30487350  0.00225274  0.08868228    -0.01800
C536        C  0.30567529  0.00143711  0.15153074    -0.00100
C537        C  0.32850266  0.97907891  0.18299011    -0.03700
C538        C  0.35640435  0.96493490  0.14643760     0.03300
C539        C  0.33754360  0.99724158  0.98817921     0.10200
C540        C  0.27470660  0.01759631  0.05910016     0.36100
C541        C  0.38033851  0.94102223  0.17150679     0.39500
C542        C  0.29859307  0.97046011  0.94897214    -0.04100
C543        C  0.30090361  0.98430819  0.88860472     0.03100
C544        C  0.34426356  0.02499096  0.86464691    -0.03700
C545        C  0.38491137  0.04867386  0.90502226     0.00100
C546        C  0.38081584  0.03562965  0.96563643    -0.02400
C547        C  0.25529429  0.92846766  0.97172553     0.36800
C548        C  0.42984838  0.09159938  0.88854846     0.40400
C549        C  0.25709884  0.95575967  0.85398714     0.39600
C550        C  0.42072668  0.06422096  0.00644806     0.36500
C551        C  0.38248172  0.95068786  0.04756625     0.37200
C552        C  0.28597911  0.02828083  0.18032119     0.40400
N553        N  0.22129477  0.93201842  0.82812645    -0.37700
N554        N  0.22087032  0.89506538  0.99002712    -0.39200
N555        N  0.46613309  0.12712707  0.88063133    -0.37000
N556        N  0.45236861  0.08722749  0.03887231    -0.39400
N557        N  0.24905430  0.02859182  0.03741662    -0.39100
N558        N  0.27032297  0.05051747  0.20110760    -0.36800
N559        N  0.39927590  0.92088833  0.18853424    -0.37800
N560        N  0.40208492  0.93585759  0.01880344    -0.39500
C561        C  0.24299905  0.82993401  0.26178333    -0.04400
C562        C  0.21830344  0.82777788  0.31417760     0.09700
C563        C  0.24022346  0.86628284  0.35437157    -0.01800
C564        C  0.28239882  0.90872010  0.33718295    -0.00100
C565        C  0.29543537  0.91757924  0.27470642    -0.03700
C566        C  0.27336681  0.87554938  0.23677928     0.03300
C567        C  0.16469785  0.79629057  0.31209620     0.10200
C568        C  0.21756315  0.86435193  0.41091598     0.36100
C569        C  0.27116950  0.87614819  0.17266958     0.39500
C570        C  0.13833298  0.75930775  0.35260768    -0.04100
C571        C  0.08947777  0.72509824  0.33998886     0.03100
C572        C  0.07143987  0.71942403  0.28002221    -0.03700
C573        C  0.09602858  0.76236833  0.24449016     0.00100
C574        C  0.14029836  0.80152155  0.26362968    -0.02400
C575        C  0.16137866  0.75487680  0.40556283     0.36800
C576        C  0.07550815  0.77074638  0.19159723     0.40400
C577        C  0.05977288  0.69432825  0.38814555     0.39600
C578        C  0.16106283  0.84759958  0.23321536     0.36500
C579        C  0.22634550  0.78609246  0.22675899     0.37200
C580        C  0.30926498  0.94442848  0.38337402     0.40400
N581        N  0.03669414  0.67001662  0.42690207    -0.37700
N582        N  0.17950601  0.75106046  0.44792345    -0.39200
N583        N  0.06124589  0.78013214  0.14964156    -0.37000
N584        N  0.17643346  0.88387323  0.20857716    -0.39400
N585        N  0.19970641  0.86335661  0.45603487    -0.39100
N586        N  0.33073541  0.97219359  0.42060090    -0.36800
N587        N  0.26619090  0.87313452  0.12160628    -0.37800
N588        N  0.21297932  0.75132241  0.19869551    -0.39500
C589        C  0.72351123  0.07744343  0.92791747    -0.04400
C590        C  0.68473622  0.03719369  0.95433331     0.09700
C591        C  0.64855397  0.00163267  0.91697615    -0.01800
C592        C  0.65360442  0.00553367  0.85477145    -0.00100
C593        C  0.68564876  0.05102815  0.82787624    -0.03700
C594        C  0.72027524  0.08796243  0.86797035     0.03300
C595        C  0.68298868  0.03055611  0.02052804     0.10200
C596        C  0.60514026  0.96108906  0.94181006     0.36100
C597        C  0.75018962  0.13845571  0.85463906     0.39500
C598        C  0.68285163  0.06391016  0.06198481    -0.04100
C599        C  0.67585233  0.05236080  0.12354391     0.03100
C600        C  0.65602412  0.00342665  0.14188732    -0.03700
C601        C  0.64995545  0.96999349  0.09466827     0.00100
C602        C  0.67582621  0.98709724  0.04216529    -0.02400
C603        C  0.68741288  0.10860565  0.04158099     0.36800
C604        C  0.61044953  0.92021231  0.09031126     0.40400
C605        C  0.68471737  0.09000352  0.16601812     0.39600
C606        C  0.68774771  0.95670298  0.00656366     0.36500
C607        C  0.76653220  0.10880243  0.96300812     0.37200
C608        C  0.62354062  0.96249032  0.81941239     0.40400
N609        N  0.69189479  0.12057359  0.19920386    -0.37700
N610        N  0.69074552  0.14413009  0.02516949    -0.39200
N611        N  0.57892692  0.88080648  0.08432995    -0.37000
N612        N  0.69764155  0.93274928  0.97834275    -0.39400
N613        N  0.57019082  0.92856350  0.96051683    -0.39100
N614        N  0.59973461  0.92734871  0.79258745    -0.36800
N615        N  0.77604886  0.17947846  0.84948161    -0.37800
N616        N  0.80085102  0.13350462  0.99087312    -0.39500
C617        C  0.59466978  0.77634763  0.28350979    -0.04400
C618        C  0.57743697  0.78353503  0.22976647     0.09700
C619        C  0.56074993  0.74836284  0.18512241    -0.01800
C620        C  0.56757333  0.70884607  0.19085197    -0.00100
C621        C  0.59425370  0.70579693  0.24022036    -0.03700
C622        C  0.59997285  0.73606485  0.29040430     0.03300
C623        C  0.58553247  0.83178389  0.21712376     0.10200
C624        C  0.53904937  0.75449465  0.13176615     0.36100
C625        C  0.60016790  0.72127724  0.35097907     0.39500
C626        C  0.62930001  0.86383331  0.19060761    -0.04100
C627        C  0.64862593  0.91298736  0.19819076     0.03100
C628        C  0.61717372  0.93163502  0.21402655    -0.03700
C629        C  0.56987882  0.89726598  0.23613552     0.00100
C630        C  0.55574196  0.84800751  0.24051149    -0.02400
C631        C  0.65090396  0.84678481  0.14728086     0.36800
C632        C  0.53516199  0.91007353  0.25658972     0.40400
C633        C  0.69948047  0.94284321  0.18102050     0.39600
C634        C  0.51004231  0.81337978  0.26786492     0.36500
C635        C  0.60752583  0.81103304  0.33177260     0.37200
C636        C  0.54395484  0.67068993  0.14728387     0.40400
N637        N  0.73966770  0.96500982  0.16631488    -0.37700
N638        N  0.66729055  0.83528895  0.10924477    -0.39200
N639        N  0.50510503  0.91736607  0.27252018    -0.37000
N640        N  0.47369739  0.78573061  0.28973315    -0.39400
N641        N  0.52213317  0.75949723  0.08903318    -0.39100
N642        N  0.52408869  0.64171887  0.11091907    -0.36800
N643        N  0.59891520  0.70993635  0.39990451    -0.37800
N644        N  0.61759526  0.83872903  0.37003774    -0.39500
C645        C  0.46594357  0.05998506  0.24975177    -0.04400
C646        C  0.48476561  0.03262478  0.27409695     0.09700
C647        C  0.45401444  0.99396247  0.31058518    -0.01800
C648        C  0.40313176  0.97210017  0.30497308    -0.00100
C649        C  0.38155113  0.99696583  0.27601126    -0.03700
C650        C  0.41575500  0.04472372  0.25614616     0.03300
C651        C  0.53160692  0.03602640  0.25289439     0.10200
C652        C  0.47454980  0.97380850  0.35069298     0.36100
C653        C  0.39961871  0.07715831  0.23724861     0.39500
C654        C  0.57024958  0.04743115  0.29188446    -0.04100
C655        C  0.60598333  0.03472120  0.27822130     0.03100
C656        C  0.60201960  0.00663875  0.22557110    -0.03700
C657        C  0.56411816  0.99942843  0.18486221     0.00100
C658        C  0.53253982  0.01722141  0.19693029    -0.02400
C659        C  0.57329509  0.07328331  0.34635776     0.36800
C660        C  0.55320584  0.97088583  0.13106845     0.40400
C661        C  0.64572496  0.05195194  0.32015997     0.39600
C662        C  0.50114636  0.01689845  0.15037964     0.36500
C663        C  0.49796938  0.10305677  0.21658920     0.37200
C664        C  0.37727827  0.92156597  0.32136385     0.40400
N665        N  0.67669871  0.06680421  0.35496188    -0.37700
N666        N  0.57560551  0.09386190  0.38973817    -0.39200
N667        N  0.54012952  0.94887295  0.08730339    -0.37000
N668        N  0.47793605  0.01827743  0.11206915    -0.39400
N669        N  0.49053877  0.95818783  0.38375973    -0.39100
N670        N  0.35907186  0.88135820  0.33456076    -0.36800
N671        N  0.38823901  0.10434093  0.22252727    -0.37800
N672        N  0.52335872  0.13709215  0.18937666    -0.39500
loop_ 
_geom_bond_atom_site_label_1 
_geom_bond_atom_site_label_2 
_geom_bond_distance 
_geom_bond_site_symmetry_2 
_ccdc_geom_bond_type 
O1            C4   1.267   1_455  A
O1           Cd6   2.502   1_455  S
C2           O11   1.264       .  A
C2            O7   1.268       .  A
C2          C164   1.582       .  S
O3            C9   1.269       .  A
O3           Cd6   2.600       .  S
C4           O12   1.264       .  A
C4          C132   1.477       .  S
C5           O10   1.268       .  A
C5            O8   1.266       .  A
C5           C22   1.489       .  S
Cd6          O13   2.495       .  S
Cd6          O12   2.489       .  S
Cd6          O11   2.593       .  S
Cd6           O7   2.587       .  S
Cd6          O10   2.548   1_655  S
Cd6           O8   2.499   1_655  S
C9           O13   1.261       .  A
C9           C74   1.490       .  S
O14          C17   1.266       .  A
O14         Cd19   2.502       .  S
C15          O24   1.260       .  A
C15          O20   1.268       .  A
C15         C168   1.549       .  S
O16          C22   1.271       .  A
O16         Cd19   2.547       .  S
C17          O25   1.262       .  A
C17         C121   1.465       .  S
C18          O23   1.269       .  A
C18          O21   1.264       .  A
C18          C31   1.511       .  S
Cd19         O26   2.489       .  S
Cd19         O25   2.435       .  S
Cd19         O24   2.554       .  S
Cd19         O20   2.532       .  S
Cd19         O23   2.617       .  S
Cd19         O21   2.560       .  S
C22          O26   1.266       .  A
O27          C30   1.267       .  A
O27         Cd32   2.621       .  S
C28          O37   1.263   1_545  A
C28          O33   1.268       .  A
C28          C80   1.483       .  S
O29          C35   1.267       .  A
O29         Cd32   2.552   1_565  S
C30          O38   1.272       .  A
C30         C165   1.563       .  S
C31          O36   1.269       .  A
C31          O34   1.267       .  A
Cd32         O39   2.508   1_545  S
Cd32         O38   2.504       .  S
Cd32         O37   2.478   1_545  S
Cd32         O33   2.550       .  S
Cd32         O36   2.600       .  S
Cd32         O34   2.558       .  S
C35          O39   1.264       .  A
C35          C48   1.490       .  S
O40          C43   1.269       .  A
O40         Cd45   2.530       .  S
C41          O50   1.268       .  A
C41          O46   1.268   1_655  A
C41         C163   1.576       .  S
O42          C48   1.268       .  A
O42         Cd45   2.551   1_455  S
C43          O51   1.262       .  A
C43          C95   1.474       .  S
C44          O49   1.271       .  A
C44          O47   1.265       .  A
C44          C61   1.498       .  S
Cd45         O52   2.504   1_655  S
Cd45         O51   2.448       .  S
Cd45         O50   2.523       .  S
Cd45         O46   2.606   1_655  S
Cd45         O49   2.580       .  S
Cd45         O47   2.498       .  S
C48          O52   1.264       .  A
O53          C56   1.267       .  A
O53         Cd58   2.514       .  S
C54          O63   1.265       .  A
C54          O59   1.267       .  A
C54         C167   1.571       .  S
O55          C61   1.269       .  A
O55         Cd58   2.594       .  S
C56          O64   1.261       .  A
C56         C106   1.469       .  S
C57          O62   1.270       .  A
C57          O60   1.267       .  A
C57          C70   1.496       .  S
Cd58         O65   2.524       .  S
Cd58         O64   2.445       .  S
Cd58         O63   2.594       .  S
Cd58         O59   2.544       .  S
Cd58         O62   2.545       .  S
Cd58         O60   2.523       .  S
C61          O65   1.263       .  A
O66          C69   1.267       .  A
O66         Cd71   2.553       .  S
C67          O76   1.263       .  A
C67          O72   1.269   1_545  A
C67         C145   1.472       .  S
O68          C74   1.269       .  A
O68         Cd71   2.592       .  S
C69          O77   1.270       .  A
C69         C166   1.563       .  S
C70          O75   1.268       .  A
C70          O73   1.267       .  A
Cd71         O78   2.485       .  S
Cd71         O77   2.559       .  S
Cd71         O76   2.441       .  S
Cd71         O72   2.518   1_545  S
Cd71         O75   2.549   1_545  S
Cd71         O73   2.535   1_545  S
C74          O78   1.262       .  A
O79          C82   1.266   1_545  A
O79         Cd84   2.646       .  S
C80          O89   1.262   1_545  A
C80          O85   1.268       .  A
O81          C87   1.267       .  A
O81         Cd84   2.554       .  S
C82          O90   1.269       .  A
C82         C158   1.564       .  S
C83          O88   1.271       .  A
C83          O86   1.266       .  A
C83          C96   1.503       .  S
Cd84         O91   2.500       .  S
Cd84         O90   2.474   1_545  S
Cd84         O89   2.475   1_545  S
Cd84         O85   2.551       .  S
Cd84         O88   2.584   1_545  S
Cd84         O86   2.520   1_545  S
C87          O91   1.262       .  A
C87         C126   1.487       .  S
O92          C95   1.266       .  A
O92         Cd97   2.518       .  S
C93         O102   1.269       .  A
C93          O98   1.264       .  A
C93         C159   1.548   1_655  S
O94         C100   1.266       .  A
O94         Cd97   2.547       .  S
C95         O103   1.265       .  A
C96         O101   1.269       .  A
C96          O99   1.266       .  A
Cd97        O104   2.519       .  S
Cd97        O103   2.459       .  S
Cd97        O102   2.417       .  S
Cd97         O98   2.595       .  S
Cd97        O101   2.587   1_655  S
Cd97         O99   2.535   1_655  S
C100        O104   1.264       .  A
C100        C113   1.490       .  S
O105        C108   1.260       .  A
O105       Cd110   2.545       .  S
C106        O115   1.263       .  A
C106        O111   1.265       .  A
O107        C113   1.266       .  A
O107       Cd110   2.543       .  S
C108        O116   1.269       .  A
C108        C162   1.575       .  S
C109        O114   1.269       .  A
C109        O112   1.265       .  A
C109        C152   1.503       .  S
Cd110       O117   2.518       .  S
Cd110       O116   2.533       .  S
Cd110       O115   2.451       .  S
Cd110       O111   2.505       .  S
Cd110       O114   2.605       .  S
Cd110       O112   2.522       .  S
C113        O117   1.265       .  A
O118        C121   1.268       .  A
O118       Cd123   2.494       .  S
C119        O128   1.269       .  A
C119        O124   1.266       .  A
C119        C161   1.549       .  S
O120        C126   1.268       .  A
O120       Cd123   2.541       .  S
C121        O129   1.264       .  A
C122        O127   1.269       .  A
C122        O125   1.260       .  A
C122        C135   1.486       .  S
Cd123       O130   2.494       .  S
Cd123       O129   2.428       .  S
Cd123       O128   2.572       .  S
Cd123       O124   2.482       .  S
Cd123       O127   2.587       .  S
Cd123       O125   2.463       .  S
C126        O130   1.265       .  A
O131        C134   1.260       .  A
O131       Cd136   2.529   1_455  S
C132        O141   1.267       .  A
C132        O137   1.265   1_655  A
O133        C139   1.266       .  A
O133       Cd136   2.528       .  S
C134        O142   1.269   1_455  A
C134        C160   1.574       .  S
C135        O140   1.268       .  A
C135        O138   1.262       .  A
Cd136       O143   2.494       .  S
Cd136       O142   2.585       .  S
Cd136       O141   2.501       .  S
Cd136       O137   2.492   1_655  S
Cd136       O140   2.592   1_655  S
Cd136       O138   2.483   1_655  S
C139        O143   1.265       .  A
C139        C148   1.482       .  S
O144        C147   1.267       .  A
O144       Cd149   2.607       .  S
C145        O154   1.263       .  A
C145        O150   1.267   1_545  A
O146        C152   1.271       .  A
O146       Cd149   2.617   1_565  S
C147        O155   1.269   1_545  A
C147        C157   1.552   1_545  S
C148        O153   1.271       .  A
C148        O151   1.266       .  A
Cd149       O156   2.508   1_545  S
Cd149       O155   2.471   1_545  S
Cd149       O154   2.447       .  S
Cd149       O150   2.517   1_545  S
Cd149       O153   2.523       .  S
Cd149       O151   2.472       .  S
C152        O156   1.261       .  A
C157        C600   1.596   1_565  S
C157        C628   1.575       .  S
C157        C656   1.612   1_565  S
C158        C537   1.609       .  S
C158        C565   1.584       .  S
C158        C649   1.605       .  S
C159        C481   1.596       .  S
C159        C509   1.614       .  S
C159        C572   1.571       .  S
C160        C425   1.597       .  S
C160        C460   1.604       .  S
C160        C516   1.604   1_455  S
C161        C376   1.610       .  S
C161        C397   1.601       .  S
C161        C453   1.590       .  S
C162        C341   1.611       .  S
C162        C404   1.607       .  S
C162        C621   1.576       .  S
C163        C285   1.603       .  S
C163        C313   1.607       .  S
C163        C488   1.597       .  S
C164        C257   1.602       .  S
C164        C320   1.603       .  S
C164        C432   1.605       .  S
C165        C201   1.577       .  S
C165        C229   1.610       .  S
C165        C544   1.604       .  S
C166        C236   1.601       .  S
C166        C264   1.580       .  S
C166        C593   1.597       .  S
C167        C180   1.604       .  S
C167        C292   1.586       .  S
C167        C348   1.616       .  S
C168        C173   1.599       .  S
C168        C208   1.590       .  S
C168        C369   1.615       .  S
C169        C170   1.420       .  A
C169        C174   1.435       .  A
C169        C187   1.449       .  S
C170        C175   1.538       .  S
C170        C171   1.416       .  A
C171        C172   1.413       .  A
C171        C176   1.449       .  S
C172        C173   1.438       .  A
C172        C188   1.458       .  S
C173        C174   1.433       .  A
C174        C177   1.447       .  S
C175        C178   1.420       .  A
C175        C182   1.409       .  A
C176        N193   1.155       .  T
C177        N195   1.158       .  T
C178        C179   1.433       .  A
C178        C183   1.448       .  S
C179        C180   1.432       .  A
C179        C185   1.450       .  S
C180        C181   1.437       .  A
C181        C182   1.422       .  A
C181        C184   1.448       .  S
C182        C186   1.453       .  S
C183        N190   1.157       .  T
C184        N191   1.157       .  T
C185        N189   1.157       .  T
C186        N192   1.157       .  T
C187        N196   1.157       .  T
C188        N194   1.157       .  T
C197        C198   1.404       .  A
C197        C202   1.403       .  A
C197        C215   1.455       .  S
C198        C203   1.477       .  S
C198        C199   1.397       .  A
C199        C200   1.398       .  A
C199        C204   1.455       .  S
C200        C201   1.431       .  A
C200        C216   1.445       .  S
C201        C202   1.447       .  A
C202        C205   1.457       .  S
C203        C206   1.403       .  A
C203        C210   1.395       .  A
C204        N221   1.157       .  T
C205        N223   1.158       .  T
C206        C207   1.403       .  A
C206        C211   1.462       .  S
C207        C208   1.441       .  A
C207        C213   1.449       .  S
C208        C209   1.444       .  A
C209        C210   1.402       .  A
C209        C212   1.454       .  S
C210        C214   1.453       .  S
C211        N218   1.158       .  T
C212        N219   1.158       .  T
C213        N217   1.158       .  T
C214        N220   1.157       .  T
C215        N224   1.157       .  T
C216        N222   1.155       .  T
C225        C226   1.405       .  A
C225        C230   1.419       .  A
C225        C243   1.459       .  S
C226        C231   1.523       .  S
C226        C227   1.407   1_545  A
C227        C228   1.428       .  A
C227        C232   1.450       .  S
C228        C229   1.437   1_565  A
C228        C244   1.447       .  S
C229        C230   1.455       .  A
C230        C233   1.452       .  S
C231        C234   1.403       .  A
C231        C238   1.412   1_545  A
C232        N249   1.157       .  T
C233        N251   1.159       .  T
C234        C235   1.409       .  A
C234        C239   1.453       .  S
C235        C236   1.439       .  A
C235        C241   1.450       .  S
C236        C237   1.441       .  A
C237        C238   1.433   1_545  A
C237        C240   1.446   1_545  S
C238        C242   1.450       .  S
C239        N246   1.157       .  T
C240        N247   1.158       .  T
C241        N245   1.157       .  T
C242        N248   1.157       .  T
C243        N252   1.157       .  T
C244        N250   1.157       .  T
C253        C254   1.388       .  A
C253        C258   1.414       .  A
C253        C271   1.453       .  S
C254        C259   1.491       .  S
C254        C255   1.390       .  A
C255        C256   1.413       .  A
C255        C260   1.450       .  S
C256        C257   1.453       .  A
C256        C272   1.449       .  S
C257        C258   1.446       .  A
C258        C261   1.436       .  S
C259        C262   1.397       .  A
C259        C266   1.406       .  A
C260        N277   1.157       .  T
C261        N279   1.156       .  T
C262        C263   1.409       .  A
C262        C267   1.448       .  S
C263        C264   1.436       .  A
C263        C269   1.447       .  S
C264        C265   1.433       .  A
C265        C266   1.404       .  A
C265        C268   1.454       .  S
C266        C270   1.440       .  S
C267        N274   1.157       .  T
C268        N275   1.157       .  T
C269        N273   1.157       .  T
C270        N276   1.153       .  T
C271        N280   1.157       .  T
C272        N278   1.158       .  T
C281        C282   1.397       .  A
C281        C286   1.404       .  A
C281        C299   1.456       .  S
C282        C287   1.487       .  S
C282        C283   1.395       .  A
C283        C284   1.416       .  A
C283        C288   1.452       .  S
C284        C285   1.448       .  A
C284        C300   1.446       .  S
C285        C286   1.451       .  A
C286        C289   1.457       .  S
C287        C290   1.394       .  A
C287        C294   1.406       .  A
C288        N305   1.157       .  T
C289        N307   1.158       .  T
C290        C291   1.390       .  A
C290        C295   1.450       .  S
C291        C292   1.423       .  A
C291        C297   1.439       .  S
C292        C293   1.438       .  A
C293        C294   1.423       .  A
C293        C296   1.439       .  S
C294        C298   1.450       .  S
C295        N302   1.156       .  T
C296        N303   1.156       .  T
C297        N301   1.155       .  T
C298        N304   1.157       .  T
C299        N308   1.157       .  T
C300        N306   1.158       .  T
C309        C310   1.404       .  A
C309        C314   1.417       .  A
C309        C327   1.453       .  S
C310        C315   1.523   1_455  S
C310        C311   1.414   1_455  A
C311        C312   1.432       .  A
C311        C316   1.448       .  S
C312        C313   1.430       .  A
C312        C328   1.450       .  S
C313        C314   1.440   1_655  A
C314        C317   1.448       .  S
C315        C318   1.403       .  A
C315        C322   1.413   1_655  A
C316        N333   1.157       .  T
C317        N335   1.158       .  T
C318        C319   1.410       .  A
C318        C323   1.454       .  S
C319        C320   1.440       .  A
C319        C325   1.449       .  S
C320        C321   1.438   1_655  A
C321        C322   1.435       .  A
C321        C324   1.447       .  S
C322        C326   1.448       .  S
C323        N330   1.156       .  T
C324        N331   1.158       .  T
C325        N329   1.157       .  T
C326        N332   1.157       .  T
C327        N336   1.157       .  T
C328        N334   1.157       .  T
C337        C338   1.402       .  A
C337        C342   1.413       .  A
C337        C355   1.453       .  S
C338        C343   1.514   1_554  S
C338        C339   1.406       .  A
C339        C340   1.418       .  A
C339        C344   1.452       .  S
C340        C341   1.450       .  A
C340        C356   1.452       .  S
C341        C342   1.440       .  A
C342        C345   1.441       .  S
C343        C346   1.405       .  A
C343        C350   1.399       .  A
C344        N361   1.157       .  T
C345        N363   1.156       .  T
C346        C347   1.422       .  A
C346        C351   1.457       .  S
C347        C348   1.451       .  A
C347        C353   1.443       .  S
C348        C349   1.443       .  A
C349        C350   1.414       .  A
C349        C352   1.441       .  S
C350        C354   1.452       .  S
C351        N358   1.156   1_556  T
C352        N359   1.158       .  T
C353        N357   1.157       .  T
C354        N360   1.157   1_556  T
C355        N364   1.157       .  T
C356        N362   1.157       .  T
C365        C366   1.414       .  A
C365        C370   1.422       .  A
C365        C383   1.450       .  S
C366        C371   1.509   1_556  S
C366        C367   1.408       .  A
C367        C368   1.409       .  A
C367        C372   1.449       .  S
C368        C369   1.415       .  A
C368        C384   1.448       .  S
C369        C370   1.434       .  A
C370        C373   1.450       .  S
C371        C374   1.398       .  A
C371        C378   1.402       .  A
C372        N389   1.157       .  T
C373        N391   1.158       .  T
C374        C375   1.418       .  A
C374        C379   1.461       .  S
C375        C376   1.452       .  A
C375        C381   1.441       .  S
C376        C377   1.439       .  A
C377        C378   1.424       .  A
C377        C380   1.448       .  S
C378        C382   1.450       .  S
C379        N386   1.157   1_554  T
C380        N387   1.157       .  T
C381        N385   1.155       .  T
C382        N388   1.157       .  T
C383        N392   1.157       .  T
C384        N390   1.158       .  T
C393        C394   1.410       .  A
C393        C398   1.432       .  A
C393        C411   1.451       .  S
C394        C399   1.529       .  S
C394        C395   1.415       .  A
C395        C396   1.413       .  A
C395        C400   1.453       .  S
C396        C397   1.434       .  A
C396        C412   1.452       .  S
C397        C398   1.446       .  A
C398        C401   1.448       .  S
C399        C402   1.415       .  A
C399        C406   1.397       .  A
C400        N417   1.156       .  T
C401        N419   1.158       .  T
C402        C403   1.433       .  A
C402        C407   1.447       .  S
C403        C404   1.435       .  A
C403        C409   1.449       .  S
C404        C405   1.457       .  A
C405        C406   1.412       .  A
C405        C408   1.452       .  S
C406        C410   1.456       .  S
C407        N414   1.157       .  T
C408        N415   1.159       .  T
C409        N413   1.157       .  T
C410        N416   1.157       .  T
C411        N420   1.157       .  T
C412        N418   1.157       .  T
C421        C422   1.409   1_455  A
C421        C426   1.424       .  A
C421        C439   1.452       .  S
C422        C427   1.516   1_554  S
C422        C423   1.411       .  A
C423        C424   1.416       .  A
C423        C428   1.446       .  S
C424        C425   1.431   1_655  A
C424        C440   1.451       .  S
C425        C426   1.430       .  A
C426        C429   1.441       .  S
C427        C430   1.411       .  A
C427        C434   1.408   1_655  A
C428        N445   1.156       .  T
C429        N447   1.155       .  T
C430        C431   1.428       .  A
C430        C435   1.450       .  S
C431        C432   1.434       .  A
C431        C437   1.448       .  S
C432        C433   1.432   1_655  A
C433        C434   1.413       .  A
C433        C436   1.452       .  S
C434        C438   1.447       .  S
C435        N442   1.157       .  T
C436        N443   1.158       .  T
C437        N441   1.156       .  T
C438        N444   1.156       .  T
C439        N448   1.157   1_554  T
C440        N446   1.157       .  T
C449        C450   1.402       .  A
C449        C454   1.406       .  A
C449        C467   1.440       .  S
C450        C455   1.496       .  S
C450        C451   1.399       .  A
C451        C452   1.415       .  A
C451        C456   1.447       .  S
C452        C453   1.436       .  A
C452        C468   1.446       .  S
C453        C454   1.438       .  A
C454        C457   1.453       .  S
C455        C458   1.394       .  A
C455        C462   1.395       .  A
C456        N473   1.157       .  T
C457        N475   1.158       .  T
C458        C459   1.413       .  A
C458        C463   1.450       .  S
C459        C460   1.449       .  A
C459        C465   1.448       .  S
C460        C461   1.438       .  A
C461        C462   1.419       .  A
C461        C464   1.437       .  S
C462        C466   1.450       .  S
C463        N470   1.157       .  T
C464        N471   1.155       .  T
C465        N469   1.158       .  T
C466        N472   1.157       .  T
C467        N476   1.153       .  T
C468        N474   1.157       .  T
C477        C478   1.398       .  A
C477        C482   1.416       .  A
C477        C495   1.456       .  S
C478        C483   1.502   1_554  S
C478        C479   1.402   1_455  A
C479        C480   1.419       .  A
C479        C484   1.455       .  S
C480        C481   1.447   1_655  A
C480        C496   1.449       .  S
C481        C482   1.442       .  A
C482        C485   1.444       .  S
C483        C486   1.394   1_455  A
C483        C490   1.406       .  A
C484        N501   1.157       .  T
C485        N503   1.157       .  T
C486        C487   1.407       .  A
C486        C491   1.461   1_556  S
C487        C488   1.446       .  A
C487        C493   1.446       .  S
C488        C489   1.441   1_655  A
C489        C490   1.425       .  A
C489        C492   1.450       .  S
C490        C494   1.451       .  S
C491        N498   1.157       .  T
C492        N499   1.158       .  T
C493        N497   1.158       .  T
C494        N500   1.157   1_556  T
C495        N504   1.157       .  T
C496        N502   1.158       .  T
C505        C506   1.403       .  A
C505        C510   1.426       .  A
C505        C523   1.450       .  S
C506        C511   1.513       .  S
C506        C507   1.398   1_655  A
C507        C508   1.420       .  A
C507        C512   1.460       .  S
C508        C509   1.459       .  A
C508        C524   1.449       .  S
C509        C510   1.437   1_455  A
C510        C513   1.444       .  S
C511        C514   1.397       .  A
C511        C518   1.410       .  A
C512        N529   1.157       .  T
C513        N531   1.157       .  T
C514        C515   1.409   1_655  A
C514        C519   1.458   1_655  S
C515        C516   1.441   1_455  A
C515        C521   1.442       .  S
C516        C517   1.437       .  A
C517        C518   1.431       .  A
C517        C520   1.448       .  S
C518        C522   1.448       .  S
C519        N526   1.157       .  T
C520        N527   1.158       .  T
C521        N525   1.156       .  T
C522        N528   1.157       .  T
C523        N532   1.157       .  T
C524        N530   1.159       .  T
C533        C534   1.405       .  A
C533        C538   1.424       .  A
C533        C551   1.453       .  S
C534        C539   1.517   1_554  S
C534        C535   1.403   1_565  A
C535        C536   1.417       .  A
C535        C540   1.454       .  S
C536        C537   1.449   1_545  A
C536        C552   1.452       .  S
C537        C538   1.445       .  A
C538        C541   1.452       .  S
C539        C542   1.406       .  A
C539        C546   1.403   1_565  A
C540        N557   1.157       .  T
C541        N559   1.158       .  T
C542        C543   1.425       .  A
C542        C547   1.453       .  S
C543        C544   1.446   1_565  A
C543        C549   1.449       .  S
C544        C545   1.444       .  A
C545        C546   1.418       .  A
C545        C548   1.449       .  S
C546        C550   1.456   1_556  S
C547        N554   1.157       .  T
C548        N555   1.157       .  T
C549        N553   1.158       .  T
C550        N556   1.157       .  T
C551        N560   1.157       .  T
C552        N558   1.158       .  T
C561        C562   1.401       .  A
C561        C566   1.406       .  A
C561        C579   1.455       .  S
C562        C567   1.484       .  S
C562        C563   1.396       .  A
C563        C564   1.403       .  A
C563        C568   1.450       .  S
C564        C565   1.456       .  A
C564        C580   1.457       .  S
C565        C566   1.439       .  A
C566        C569   1.447       .  S
C567        C570   1.398       .  A
C567        C574   1.404       .  A
C568        N585   1.158       .  T
C569        N587   1.158       .  T
C570        C571   1.408       .  A
C570        C575   1.450       .  S
C571        C572   1.444       .  A
C571        C577   1.455       .  S
C572        C573   1.442       .  A
C573        C574   1.400       .  A
C573        C576   1.454       .  S
C574        C578   1.457       .  S
C575        N582   1.157       .  T
C576        N583   1.158       .  T
C577        N581   1.158       .  T
C578        N584   1.157       .  T
C579        N588   1.157       .  T
C580        N586   1.158       .  T
C589        C590   1.395       .  A
C589        C594   1.412       .  A
C589        C607   1.455       .  S
C590        C595   1.505   1_556  S
C590        C591   1.414       .  A
C591        C592   1.409       .  A
C591        C596   1.453   1_545  S
C592        C593   1.431       .  A
C592        C608   1.453   1_545  S
C593        C594   1.451       .  A
C594        C597   1.440       .  S
C595        C598   1.419       .  A
C595        C602   1.390   1_545  A
C596        N613   1.157       .  T
C597        N615   1.155       .  T
C598        C599   1.426       .  A
C598        C603   1.450       .  S
C599        C600   1.431       .  A
C599        C605   1.448       .  S
C600        C601   1.448   1_545  A
C601        C602   1.389       .  A
C601        C604   1.454       .  S
C602        C606   1.454       .  S
C603        N610   1.157       .  T
C604        N611   1.158       .  T
C605        N609   1.157       .  T
C606        N612   1.157   1_554  T
C607        N616   1.157       .  T
C608        N614   1.158       .  T
C617        C618   1.400       .  A
C617        C622   1.401       .  A
C617        C635   1.454       .  S
C618        C623   1.470       .  S
C618        C619   1.396       .  A
C619        C620   1.403       .  A
C619        C624   1.454       .  S
C620        C621   1.438       .  A
C620        C636   1.443       .  S
C621        C622   1.436       .  A
C622        C625   1.450       .  S
C623        C626   1.385       .  A
C623        C630   1.400       .  A
C624        N641   1.157       .  T
C625        N643   1.158       .  T
C626        C627   1.385       .  A
C626        C631   1.451       .  S
C627        C628   1.453       .  A
C627        C633   1.461       .  S
C628        C629   1.437       .  A
C629        C630   1.415       .  A
C629        C632   1.441       .  S
C630        C634   1.452       .  S
C631        N638   1.156       .  T
C632        N639   1.156       .  T
C633        N637   1.158       .  T
C634        N640   1.157       .  T
C635        N644   1.157       .  T
C636        N642   1.154       .  T
C645        C646   1.411       .  A
C645        C650   1.428       .  A
C645        C663   1.449       .  S
C646        C651   1.522       .  S
C646        C647   1.400   1_545  A
C647        C648   1.413       .  A
C647        C652   1.455       .  S
C648        C649   1.455       .  A
C648        C664   1.452       .  S
C649        C650   1.435   1_565  A
C650        C653   1.448       .  S
C651        C654   1.405       .  A
C651        C658   1.401       .  A
C652        N669   1.157       .  T
C653        N671   1.157       .  T
C654        C655   1.429       .  A
C654        C659   1.453       .  S
C655        C656   1.452       .  A
C655        C661   1.448       .  S
C656        C657   1.443   1_545  A
C657        C658   1.417   1_565  A
C657        C660   1.447       .  S
C658        C662   1.450       .  S
C659        N666   1.157       .  T
C660        N667   1.157       .  T
C661        N665   1.158       .  T
C662        N668   1.156       .  T
C663        N672   1.157       .  T
C664        N670   1.159       .  T
