geometry optimzed in LAMMPS
_audit_creation_date              2020-11-30 
_audit_creation_method            'lammps2cif' 
_symmetry_space_group_name_H-M    'P1' 
_symmetry_Int_Tables_number       1 
_symmetry_cell_setting            triclinic 
loop_ 
_symmetry_equiv_pos_as_xyz 
  x,y,z 
_cell_length_a                    48.32675413 
_cell_length_b                    48.22540429105287 
_cell_length_c                    43.701944516137836 
_cell_angle_alpha                 86.27102482034039 
_cell_angle_beta                  94.37189353936309 
_cell_angle_gamma                 111.26521839796628 
loop_ 
_atom_site_label 
_atom_site_type_symbol 
_atom_site_fract_x 
_atom_site_fract_y 
_atom_site_fract_z 
_atom_site_charge 
O1          O  0.02377392  0.25700382  0.04675555    -0.74800
O2          O  0.02361325  0.25911176  0.45924251    -0.74800
O3          O  0.02185898  0.29778361  0.50081881    -0.74900
O4          O  0.02430548  0.21820499  0.00506115    -0.74900
O5          O  0.47675519  0.20233893  0.99932432    -0.74900
O6          O  0.47484110  0.28013381  0.49458000    -0.74800
O7          O  0.47386191  0.23909452  0.45467646    -0.74800
O8          O  0.47554940  0.24081399  0.04161799    -0.74900
Ni9        Ni  0.02544094  0.25931561  0.50315940     1.25400
Ni10       Ni  0.47327850  0.24074538  0.99757372     1.25400
C11         C  0.50042063  0.25105290  0.05727210     0.87400
C12         C  0.49816334  0.24777231  0.44081636     0.87300
C13         C  0.99648629  0.30081157  0.49889878     0.87300
C14         C  0.00024364  0.19540605  0.00562980     0.87500
O15         O  0.47306993  0.28128777  0.24623806    -0.74800
O16         O  0.47471120  0.20217543  0.24969392    -0.74800
O17         O  0.47482877  0.24107763  0.29196449    -0.74900
O18         O  0.47287435  0.24231628  0.20396562    -0.74900
O19         O  0.02326638  0.25853182  0.20925841    -0.74900
O20         O  0.02619035  0.25985583  0.29708362    -0.74800
O21         O  0.02589377  0.21978681  0.25616572    -0.74800
O22         O  0.02363113  0.29863072  0.25032828    -0.74900
Ni23       Ni  0.47209448  0.24104927  0.24790142     1.25400
Ni24       Ni  0.02652511  0.25989532  0.25321989     1.25400
C25         C  0.49749989  0.30388525  0.24680099     0.87400
C26         C  0.49984946  0.19871837  0.25129426     0.87300
C27         C  0.49987067  0.25039719  0.30746706     0.87300
C28         C  0.49731877  0.25198345  0.19031907     0.87500
O29         O  0.41829907  0.46649256  0.48518976    -0.81300
O30         O  0.05763333  0.49084852  0.49235124    -0.66000
O31         O  0.47641434  0.47832896  0.00855363    -1.12600
C32         C  0.50890103  0.08221587  0.00374915     1.05600
O33         O  0.07874153  0.03033557  0.01440895    -0.79200
O34         O  0.03511300  0.02366511  0.05370798    -0.66700
Ni35       Ni  0.44691060  0.44758450  0.48252817     1.34900
C36         C  0.51205397  0.02360780  0.06082421     0.84400
O37         O  0.01241935  0.44176622  0.50654720    -0.79700
O38         O  0.47037649  0.42307232  0.47822063    -0.90000
C39         C  0.07671016  0.50695230  0.00217792     0.83900
O40         O  0.46150676  0.47105384  0.44649280    -0.68200
O41         O  0.02622840  0.07246122  0.02460616    -0.87500
C42         C  0.48785782  0.47890298  0.43787171     0.84800
C43         C  0.49240574  0.41986827  0.49393839     1.06300
H44         H  0.02440056  0.02741215  0.46982255     0.38100
O45         O  0.02177710  0.02187793  0.49135321    -1.10100
O46         O  0.49065986  0.02545672  0.04273830    -0.66800
Ni47       Ni  0.48285448  0.01985585  0.99878917     1.26300
O48         O  0.00876283  0.47836532  0.45521542    -0.67000
O49         O  0.48927452  0.06080545  0.99014569    -0.79300
C50         C  0.41894014  0.99274822  0.99729881     0.84100
O51         O  0.44244818  0.01402110  0.00549552    -0.66500
Ni52       Ni  0.04995834  0.04863055  0.01863209     1.27400
Ni53       Ni  0.01681155  0.48252841  0.49942344     1.26100
H54         H  0.47339913  0.47212259  0.02982226     0.38700
O55         O  0.41757556  0.47096422  0.23589456    -0.81300
O56         O  0.05351934  0.48642494  0.24082812    -0.66000
O57         O  0.47557987  0.47835426  0.25774093    -1.12600
C58         C  0.50982579  0.08195639  0.25832208     1.05600
O59         O  0.08004120  0.02879126  0.26390920    -0.79200
O60         O  0.03867073  0.02561133  0.30458150    -0.66700
Ni61       Ni  0.44505317  0.45090579  0.23254904     1.34900
C62         C  0.51266748  0.02093586  0.31247163     0.84400
O63         O  0.00727793  0.43972336  0.25742418    -0.79700
O64         O  0.46736350  0.42551947  0.22741049    -0.90000
C65         C  0.07710562  0.50725094  0.24954746     0.83900
O66         O  0.45967982  0.47444152  0.19662616    -0.68200
O67         O  0.03178529  0.07524016  0.27507892    -0.87500
C68         C  0.48578628  0.48157156  0.18761003     0.84800
C69         C  0.48885614  0.42145209  0.24324448     1.06300
H70         H  0.02518493  0.02862327  0.22239858     0.38100
O71         O  0.02203855  0.02228501  0.24369442    -1.10100
O72         O  0.49150151  0.02415267  0.29502639    -0.66800
Ni73       Ni  0.48326639  0.01994610  0.25095467     1.26300
O74         O  0.00483266  0.47505133  0.20458164    -0.67000
O75         O  0.49009658  0.06121017  0.24384884    -0.79300
C76         C  0.41714347  0.49360206  0.24900073     0.84100
O77         O  0.44322200  0.01416529  0.25869377    -0.66500
Ni78       Ni  0.05322186  0.04930069  0.26867884     1.27400
Ni79       Ni  0.01347442  0.48062676  0.24853691     1.26100
H80         H  0.47237136  0.47189768  0.27900183     0.38700
O81         O  0.21830015  0.01871502  0.49580256    -0.74800
O82         O  0.29672898  0.01616528  0.50167303    -0.74800
O83         O  0.25705687  0.01665365  0.45472414    -0.74900
O84         O  0.25786849  0.02022965  0.04279503    -0.74900
O85         O  0.23479696  0.47035268  0.04731065    -0.74900
O86         O  0.23635029  0.47214838  0.46011808    -0.74800
O87         O  0.27392341  0.46848485  0.00701675    -0.74800
O88         O  0.19596608  0.47193605  0.99994001    -0.74900
Ni89       Ni  0.25820464  0.01914225  0.49867458     1.25400
Ni90       Ni  0.23428432  0.46852430  0.00352705     1.25400
C91         C  0.19484135  0.99704208  0.99740304     0.87400
C92         C  0.29984110  0.99088450  0.50270792     0.89500
C93         C  0.24680584  0.99160983  0.44156718     0.87300
C94         C  0.24818066  0.99536120  0.05820185     0.87500
O95         O  0.23944632  0.47361002  0.29751640    -0.74800
O96         O  0.23551259  0.47376491  0.20945556    -0.74800
O97         O  0.27715175  0.47361664  0.25425365    -0.74900
O98         O  0.19771220  0.47364157  0.25238496    -0.74900
O99         O  0.21719278  0.02005804  0.24737695    -0.74900
O100        O  0.29658374  0.01960445  0.25254013    -0.74800
O101        O  0.25681229  0.02139569  0.20591786    -0.74800
O102        O  0.25730689  0.01862924  0.29380115    -0.74900
Ni103      Ni  0.23682471  0.47189253  0.25353109     1.25400
Ni104      Ni  0.25757113  0.02167587  0.24986908     1.25400
C105        C  0.24866966  0.49842305  0.31106379     0.87400
C106        C  0.24443480  0.49859033  0.19390664     0.87300
C107        C  0.29924633  0.49836971  0.25354746     0.87300
C108        C  0.19348882  0.49843270  0.25054846     0.87500
C109        C  0.27156668  0.01114524  0.39269395    -0.20700
C110        C  0.24662512  0.49623407  0.41019869    -0.07200
C111        C  0.22776069  0.47197125  0.39276074     0.13600
C112        C  0.22909804  0.47355317  0.36065579    -0.20700
C113        C  0.24907790  0.49832183  0.34520736    -0.07300
C114        C  0.27303355  0.01195161  0.36060786     0.13600
C115        C  0.30095217  0.03246887  0.34620487    -0.24100
H116        H  0.29000310  0.02601713  0.40634666     0.14900
H117        H  0.21416184  0.45523606  0.34744554     0.14900
C118        C  0.20579392  0.44436231  0.40739215    -0.24000
H119        H  0.31841443  0.04413592  0.36380907     0.05100
H120        H  0.29611116  0.04972653  0.33109481     0.08400
H121        H  0.31007749  0.01942155  0.33258428     0.08400
H122        H  0.19058119  0.45046463  0.42104980     0.08300
H123        H  0.21780942  0.43240045  0.42232417     0.08300
H124        H  0.19191140  0.42859051  0.39000233     0.05100
C125        C  0.26683388  0.02039702  0.10777590    -0.20700
C126        C  0.24462337  0.49529724  0.09505522    -0.07200
C127        C  0.24650748  0.47145315  0.11480718     0.13600
C128        C  0.24621450  0.47334063  0.14671883    -0.20700
C129        C  0.24424047  0.49837652  0.15979572    -0.07300
C130        C  0.26746276  0.02202226  0.13986988     0.13600
C131        C  0.28946572  0.04934488  0.15466489    -0.24100
H132        H  0.28174687  0.03889849  0.09464736     0.14900
H133        H  0.24797108  0.45513904  0.16165617     0.14900
C134        C  0.24976474  0.44424952  0.10276732    -0.24000
H135        H  0.30377760  0.06509696  0.13761992     0.05100
H136        H  0.30425422  0.04281941  0.17200074     0.08400
H137        H  0.27750181  0.06143382  0.16571771     0.08400
H138        H  0.26940225  0.45100095  0.08852714     0.08300
H139        H  0.22938711  0.43154551  0.08892392     0.08300
H140        H  0.25300660  0.42896816  0.12165511     0.05100
C141        C  0.11036919  0.47868344  0.26063176    -0.20700
C142        C  0.10607334  0.50403386  0.24702611    -0.07200
C143        C  0.13001286  0.52666766  0.23329514     0.13600
C144        C  0.15792973  0.52375687  0.23433515    -0.20700
C145        C  0.16275167  0.49891433  0.24897660    -0.07300
C146        C  0.13843131  0.47592436  0.26219269     0.13600
C147        C  0.14191573  0.44910989  0.27930974    -0.24100
H148        H  0.09188581  0.46148279  0.27123479     0.14900
H149        H  0.17944723  0.04169075  0.22827990     0.14900
C150        C  0.13068586  0.05588927  0.22543193    -0.24000
H151        H  0.12098092  0.43455887  0.28967528     0.05100
H152        H  0.15937553  0.45639896  0.29820364     0.08400
H153        H  0.14743277  0.93179236  0.24668868     0.08400
H154        H  0.12029754  0.56698980  0.23340444     0.08300
H155        H  0.11274063  0.05223033  0.20700027     0.08300
H156        H  0.15170127  0.07132763  0.21592752     0.05100
C157        C  0.36526618  0.48280162  0.22817898    -0.20700
C158        C  0.38765285  0.49665742  0.25067473    -0.07200
C159        C  0.38409617  0.02143203  0.24672681     0.13600
C160        C  0.35475509  0.02055326  0.24730654    -0.20700
C161        C  0.32959088  0.49805256  0.25204003    -0.07300
C162        C  0.33657610  0.48356503  0.22837607     0.13600
C163        C  0.31418462  0.46996404  0.20246704    -0.24100
H164        H  0.37031338  0.47152164  0.20991566     0.14900
H165        H  0.34999860  0.04036002  0.24007767     0.14900
C166        C  0.40794500  0.04979133  0.23598087    -0.24000
H167        H  0.32380918  0.46077932  0.18512441     0.05100
H168        H  0.30653106  0.48721650  0.19065454     0.08400
H169        H  0.29481468  0.45148815  0.21144957     0.08400
H170        H  0.41816392  0.04559260  0.21569563     0.08300
H171        H  0.42532459  0.05820265  0.25472240     0.08300
H172        H  0.39890543  0.06759257  0.22927275     0.05100
C173        C  0.16150334  0.02614328  0.98942731    -0.20700
C174        C  0.16220081  0.49838245  0.99814856    -0.07200
C175        C  0.14126427  0.48416097  0.48364356     0.13600
C176        C  0.11369165  0.48750212  0.48529165    -0.20700
C177        C  0.10614490  0.50458210  0.99961018    -0.07300
C178        C  0.13416027  0.02995618  0.99029826     0.13600
C179        C  0.13262340  0.06022609  0.98185972    -0.24100
H180        H  0.18082885  0.04520645  0.98323447     0.14900
H181        H  0.09476342  0.47367686  0.47145643     0.14900
C182        C  0.14364692  0.46197780  0.46222695    -0.24000
H183        H  0.15417757  0.07627322  0.97409053     0.05100
H184        H  0.12709904  0.06960918  0.00204989     0.08400
H185        H  0.11894778  0.05991933  0.46512315     0.08400
H186        H  0.15606424  0.44837104  0.03969274     0.08300
H187        H  0.16064103  0.47361189  0.44543369     0.08300
H188        H  0.12224158  0.45069580  0.44916871     0.05100
C189        C  0.35322172  0.01908962  0.99120046    -0.20700
C190        C  0.32995888  0.98997530  0.50198894    -0.07200
C191        C  0.33410651  0.47153051  0.48455418     0.13600
C192        C  0.36299504  0.47155379  0.48320841    -0.20700
C193        C  0.38867042  0.99068476  0.50036810    -0.07300
C194        C  0.38254943  0.01999564  0.99010354     0.13600
C195        C  0.40569348  0.04744393  0.97669552    -0.24100
H196        H  0.34802473  0.03833744  0.98264096     0.14900
H197        H  0.36641445  0.45580020  0.46873804     0.14900
C198        C  0.30926430  0.45012710  0.46523823    -0.24000
H199        H  0.39619943  0.06459681  0.96853959     0.05100
H200        H  0.42245821  0.04272976  0.53530542     0.08400
H201        H  0.42374264  0.05750476  0.99436456     0.08400
H202        H  0.29836009  0.46263827  0.44954510     0.08300
H203        H  0.29501811  0.42907171  0.02394126     0.08300
H204        H  0.31750280  0.43685275  0.45093612     0.05100
C205        C  0.48628535  0.01738498  0.35991156    -0.20700
C206        C  0.50673532  0.00958363  0.34458365    -0.07200
C207        C  0.01977988  0.98862288  0.36120498     0.13600
C208        C  0.01141094  0.48143206  0.38974983    -0.20700
C209        C  0.49390469  0.49011040  0.40573413    -0.07300
C210        C  0.48003257  0.50879620  0.39027769     0.13600
C211        C  0.45903308  0.51933590  0.40588252    -0.24100
H212        H  0.47578480  0.03181674  0.34816916     0.14900
H213        H  0.02204486  0.46721543  0.40171581     0.14900
C214        C  0.04084113  0.97800342  0.34583322    -0.24000
H215        H  0.45207437  0.53550320  0.39101751     0.05100
H216        H  0.47071615  0.02990733  0.42745767     0.08400
H217        H  0.43857246  0.50023081  0.41135601     0.08400
H218        H  0.06160131  0.99701810  0.34103979     0.08300
H219        H  0.02586129  0.46694191  0.32255638     0.08300
H220        H  0.04719976  0.96137185  0.36056794     0.05100
C221        C  0.98178460  0.01432325  0.10896841    -0.20700
C222        C  0.50621315  0.01334231  0.09326239    -0.07200
C223        C  0.52137596  0.49749034  0.11111944     0.13600
C224        C  0.51409250  0.48702878  0.14123169    -0.20700
C225        C  0.49186215  0.49289329  0.15557004    -0.07300
C226        C  0.97520886  0.00575149  0.13967414     0.13600
C227        C  0.95360576  0.01638633  0.15404900    -0.24100
H228        H  0.97087811  0.02788395  0.09617219     0.14900
H229        H  0.52566656  0.47384789  0.15357664     0.14900
C230        C  0.54481095  0.48954870  0.09674737    -0.24000
H231        H  0.93352040  0.99713920  0.16024705     0.05100
H232        H  0.94609798  0.03145738  0.13806831     0.08400
H233        H  0.96436304  0.02886348  0.17488719     0.08400
H234        H  0.56418747  0.51001394  0.09172728     0.08300
H235        H  0.53541510  0.47773628  0.07520690     0.08300
H236        H  0.55310696  0.47473354  0.11224841     0.05100
C237        C  0.46855860  0.33729030  0.24753721    -0.20700
C238        C  0.49647227  0.33459488  0.24612915    -0.07200
C239        C  0.02156863  0.35861427  0.25564081     0.13600
C240        C  0.01777135  0.38621833  0.25377884    -0.20700
C241        C  0.49090353  0.39141123  0.24465737    -0.07300
C242        C  0.46543390  0.36512525  0.24703749     0.13600
C243        C  0.43492434  0.36606575  0.25036437    -0.24100
H244        H  0.44881555  0.31740935  0.24931308     0.14900
H245        H  0.03678949  0.40622300  0.25870014     0.14900
C246        C  0.05185348  0.35802557  0.26592965    -0.24000
H247        H  0.41803011  0.34344885  0.25407828     0.05100
H248        H  0.42749106  0.37603718  0.22923923     0.08400
H249        H  0.43543856  0.37928908  0.27042219     0.08400
H250        H  0.06127588  0.35044044  0.24716394     0.08300
H251        H  0.05012783  0.34296756  0.28655572     0.08300
H252        H  0.06777623  0.38040474  0.27215264     0.05100
C253        C  0.48681045  0.11799670  0.23603042    -0.20700
C254        C  0.50720075  0.11194447  0.25775715    -0.07200
C255        C  0.02550758  0.13254689  0.28086847     0.13600
C256        C  0.02278933  0.16065081  0.27852461    -0.20700
C257        C  0.50110689  0.16846185  0.25330494    -0.07300
C258        C  0.48344454  0.14580889  0.23365924     0.13600
C259        C  0.46181663  0.15112908  0.20939644    -0.24100
H260        H  0.47354076  0.10096611  0.22043916     0.14900
H261        H  0.03663684  0.17798083  0.29354917     0.14900
C262        C  0.04749861  0.12768094  0.30503348    -0.24000
H263        H  0.45077760  0.13138102  0.19520644     0.05100
H264        H  0.47371461  0.17023236  0.19387054     0.08400
H265        H  0.44415694  0.15591868  0.22035338     0.08400
H266        H  0.06556292  0.12367049  0.29398836     0.08300
H267        H  0.03598567  0.10849948  0.32064599     0.08300
H268        H  0.05815608  0.14737834  0.31938390     0.05100
C269        C  0.02186940  0.27116961  0.39460339    -0.20700
C270        C  0.49773470  0.24769207  0.40665478    -0.07200
C271        C  0.47310506  0.22967391  0.38826329     0.13600
C272        C  0.47478789  0.23107105  0.35620258    -0.20700
C273        C  0.50029572  0.24984888  0.34166684    -0.07300
C274        C  0.02379789  0.27217104  0.36263970     0.13600
C275        C  0.04812054  0.29777417  0.34808554    -0.24100
H276        H  0.03803655  0.28853333  0.40802904     0.14900
H277        H  0.45591519  0.21712420  0.34235166     0.14900
C278        C  0.44511141  0.20840998  0.40191540    -0.24000
H279        H  0.06164025  0.31404204  0.36523691     0.05100
H280        H  0.03816492  0.30973636  0.33070799     0.08400
H281        H  0.06339388  0.28942888  0.33711914     0.08400
H282        H  0.43395264  0.22096361  0.41348407     0.08300
H283        H  0.45058526  0.19251822  0.41858580     0.08300
H284        H  0.42892577  0.19519476  0.38409896     0.05100
C285        C  0.02379762  0.26437596  0.14514653    -0.20700
C286        C  0.49726160  0.25204466  0.15615883    -0.07200
C287        C  0.47257287  0.25173865  0.13623121     0.13600
C288        C  0.47442539  0.25123259  0.10431344    -0.20700
C289        C  0.50044478  0.25183007  0.09138259    -0.07300
C290        C  0.02553064  0.26454653  0.11320523     0.13600
C291        C  0.05478986  0.28271105  0.09970060    -0.24100
H292        H  0.04338783  0.27725268  0.15880809     0.14900
H293        H  0.45540232  0.25084266  0.08926876     0.14900
C294        C  0.44448581  0.25288028  0.14801918    -0.24000
H295        H  0.07185510  0.29466342  0.11750927     0.05100
H296        H  0.05174163  0.29971242  0.08278087     0.08400
H297        H  0.06367746  0.26790053  0.08854012     0.08400
H298        H  0.44989196  0.27275612  0.16205612     0.08300
H299        H  0.43322528  0.23234928  0.16199222     0.08300
H300        H  0.42844596  0.25445789  0.12899368     0.05100
C301        C  0.48033749  0.37071524  0.47101216    -0.20700
C302        C  0.49628286  0.39049747  0.49399342    -0.07200
C303        C  0.02231742  0.38553360  0.49345435     0.13600
C304        C  0.02183256  0.35613539  0.49485323    -0.20700
C305        C  0.49897392  0.33283383  0.49270457    -0.07300
C306        C  0.48127740  0.34206033  0.47021614     0.13600
C307        C  0.46390299  0.32204197  0.44485386    -0.24100
H308        H  0.46675338  0.37756879  0.45349913     0.14900
H309        H  0.04260352  0.35258119  0.49367396     0.14900
C310        C  0.03132651  0.39936956  0.04239351    -0.24000
H311        H  0.45262956  0.33345835  0.42821323     0.05100
H312        H  0.44650959  0.30205091  0.45458800     0.08400
H313        H  0.47913116  0.31505140  0.43208710     0.08400
H314        H  0.01728078  0.40593089  0.05725744     0.08300
H315        H  0.04983536  0.42442808  0.46836755     0.08300
H316        H  0.04449282  0.38867037  0.05744992     0.05100
C317        C  0.48075912  0.14482392  0.48868033    -0.20700
C318        C  0.50350843  0.16945127  0.00242891    -0.07200
C319        C  0.02554439  0.15868717  0.02240312     0.13600
C320        C  0.02556890  0.12964610  0.02248134    -0.20700
C321        C  0.50590080  0.11179165  0.00265581    -0.07300
C322        C  0.48131566  0.11589661  0.48838239     0.13600
C323        C  0.45955178  0.09444034  0.46651480    -0.24100
H324        H  0.46511929  0.15100474  0.47322280     0.14900
H325        H  0.04404512  0.12503992  0.03434278     0.14900
C326        C  0.05092259  0.18192457  0.03933274    -0.24000
H327        H  0.44505724  0.10468050  0.45298490     0.05100
H328        H  0.44480479  0.07477268  0.47954091     0.08400
H329        H  0.47173681  0.08733242  0.44994015     0.08400
H330        H  0.04214388  0.19231843  0.05632593     0.08300
H331        H  0.06418434  0.19922556  0.02282878     0.08300
H332        H  0.06630260  0.17222013  0.05199364     0.05100
O333        O  0.02381596  0.25805227  0.54691404    -0.74800
O334        O  0.02156177  0.25740035  0.95886480    -0.74800
O335        O  0.02140777  0.29632544  0.00071698    -0.74900
O336        O  0.02543715  0.21944705  0.50526178    -0.74900
O337        O  0.47557534  0.20086914  0.50246659    -0.74900
O338        O  0.47326945  0.28046261  0.99592918    -0.74800
O339        O  0.47444040  0.24227230  0.95373300    -0.74800
O340        O  0.47686800  0.24220654  0.54235092    -0.74900
Ni341      Ni  0.02451343  0.25791098  0.00289712     1.25400
Ni342      Ni  0.47351781  0.23990394  0.49847882     1.25400
C343        C  0.50208279  0.25209132  0.55749774     0.87400
C344        C  0.49887408  0.25245181  0.94009286     0.87300
C345        C  0.99610378  0.29932832  0.99853643     0.87300
C346        C  0.00124341  0.19667071  0.50418424     0.87500
O347        O  0.47470262  0.28488598  0.74409022    -0.74800
O348        O  0.47683049  0.20603951  0.75035761    -0.74800
O349        O  0.47597892  0.24586911  0.79110070    -0.74900
O350        O  0.47536891  0.24504759  0.70349161    -0.74900
O351        O  0.02044101  0.25644383  0.70969454    -0.74900
O352        O  0.02161908  0.25708705  0.79750745    -0.74800
O353        O  0.02157694  0.21722075  0.75666421    -0.74800
O354        O  0.02084176  0.29638740  0.75068484    -0.74900
Ni355      Ni  0.47394685  0.24476747  0.74718469     1.25400
Ni356      Ni  0.02285596  0.25740821  0.75370384     1.25400
C357        C  0.49908163  0.30752732  0.74419352     0.87400
C358        C  0.50201360  0.20267681  0.75252905     0.87300
C359        C  0.50078943  0.25608499  0.80684420     0.87300
C360        C  0.49995396  0.25448901  0.69013611     0.87500
O361        O  0.41749173  0.46792604  0.98766766    -0.81300
O362        O  0.05345125  0.48522328  0.99434882    -0.66000
O363        O  0.47653711  0.47598267  0.50769267    -1.12600
C364        C  0.50655342  0.07884472  0.50758892     1.05600
O365        O  0.08070498  0.03120129  0.51214527    -0.79200
O366        O  0.03921593  0.02929859  0.55213123    -0.66700
Ni367      Ni  0.44668596  0.44995525  0.98344974     1.34900
C368        C  0.51183517  0.02040106  0.56241958     0.84400
O369        O  0.00744696  0.43792714  0.01026954    -0.79700
O370        O  0.47071047  0.42627157  0.97778280    -0.90000
C371        C  0.08015858  0.51091314  0.50445280     0.83900
O372        O  0.46048653  0.47425381  0.94758850    -0.68200
O373        O  0.02993435  0.07596741  0.51892590    -0.87500
C374        C  0.48668922  0.48197742  0.93852948     0.84800
C375        C  0.49265746  0.42296894  0.99357716     1.06300
H376        H  0.02425889  0.02772576  0.97136082     0.38100
O377        O  0.02057117  0.02105566  0.99250223    -1.10100
O378        O  0.49023289  0.02189495  0.54454710    -0.66800
Ni379      Ni  0.48223490  0.01669046  0.50076119     1.26300
O380        O  0.00514823  0.47211249  0.95731834    -0.67000
O381        O  0.48766969  0.05754337  0.49315856    -0.79300
C382        C  0.41860377  0.98881834  0.49861591     0.84100
O383        O  0.44177866  0.00971819  0.50816060    -0.66500
Ni384      Ni  0.05264837  0.05084091  0.51480486     1.27400
Ni385      Ni  0.01293681  0.47855866  0.00098078     1.26100
H386        H  0.47309887  0.46993019  0.52895222     0.38700
O387        O  0.41815868  0.47423447  0.73967170    -0.81300
O388        O  0.05458313  0.48661069  0.74416203    -0.66000
O389        O  0.47650678  0.48164702  0.75926054    -1.12600
C390        C  0.51320113  0.08631610  0.75832242     1.05600
O391        O  0.08073348  0.02964893  0.76203340    -0.79200
O392        O  0.03875451  0.02473315  0.80273342    -0.66700
Ni393      Ni  0.44558774  0.45460531  0.73412499     1.34900
C394        C  0.51501444  0.02583455  0.81309885     0.84400
O395        O  0.00785283  0.43902718  0.75800351    -0.79700
O396        O  0.46770451  0.42952862  0.72692432    -0.90000
C397        C  0.07804865  0.50738864  0.75320218     0.83900
O398        O  0.45989475  0.47901499  0.69851910    -0.68200
O399        O  0.03110681  0.07456999  0.77440887    -0.87500
C400        C  0.48567146  0.48495172  0.68892662     0.84800
C401        C  0.48894617  0.42445843  0.74216031     1.06300
H402        H  0.02598757  0.02890604  0.72075141     0.38100
O403        O  0.02261128  0.02243653  0.74198553    -1.10100
O404        O  0.49398635  0.02941207  0.79569613    -0.66800
Ni405      Ni  0.48530041  0.02440106  0.75176069     1.26300
O406        O  0.00706164  0.47678341  0.70689170    -0.67000
O407        O  0.49333512  0.06573775  0.74379474    -0.79300
C408        C  0.41871811  0.49757570  0.75208874     0.84100
O409        O  0.44549519  0.02005183  0.75928391    -0.66500
Ni410      Ni  0.05332200  0.04939951  0.76739628     1.27400
Ni411      Ni  0.01444007  0.48040748  0.75117110     1.26100
H412        H  0.47335040  0.47532334  0.78056257     0.38700
O413        O  0.21746412  0.02139441  0.99686946    -0.74800
O414        O  0.29611776  0.01930318  0.00056962    -0.74800
O415        O  0.25549322  0.02031578  0.95474528    -0.74900
O416        O  0.25813090  0.01800058  0.54281000    -0.74900
O417        O  0.23905173  0.47281343  0.54772134    -0.74900
O418        O  0.23522488  0.47019171  0.95959651    -0.74800
O419        O  0.27641842  0.47015042  0.50556694    -0.74800
O420        O  0.19877920  0.47480593  0.50197813    -0.74900
Ni421      Ni  0.25742934  0.02208393  0.99867309     1.25400
Ni422      Ni  0.23693931  0.47076196  0.50396970     1.25400
C423        C  0.19545743  0.99455481  0.49662190     0.87400
C424        C  0.29967827  0.99416656  0.00196708     0.89500
C425        C  0.24544398  0.99550594  0.94118993     0.87300
C426        C  0.24851183  0.99339126  0.55866158     0.87500
O427        O  0.23805118  0.47407951  0.79717298    -0.74800
O428        O  0.23872592  0.47526852  0.70935495    -0.74800
O429        O  0.27828217  0.47531919  0.75660766    -0.74900
O430        O  0.19840924  0.47387707  0.74981894    -0.74900
O431        O  0.21785304  0.02218979  0.74544009    -0.74900
O432        O  0.29783926  0.02402485  0.75302265    -0.74800
O433        O  0.25860134  0.02306018  0.70511698    -0.74800
O434        O  0.25729425  0.02298507  0.79295881    -0.74900
Ni435      Ni  0.23778290  0.47287522  0.75328432     1.25400
Ni436      Ni  0.25845845  0.02482245  0.74902252     1.25400
C437        C  0.24639996  0.49875374  0.81088341     0.87400
C438        C  0.24750711  0.50025288  0.69407159     0.87300
C439        C  0.30033624  0.50007363  0.75707351     0.87300
C440        C  0.19384191  0.49846267  0.74821940     0.87500
C441        C  0.26897784  0.01737263  0.89255461    -0.20700
C442        C  0.24528990  0.49516662  0.91003327    -0.07200
C443        C  0.25020999  0.47266133  0.89440760     0.13600
C444        C  0.25008843  0.47441720  0.86216358    -0.20700
C445        C  0.24588673  0.49834975  0.84492999    -0.07300
C446        C  0.27067690  0.01881952  0.86053688     0.13600
C447        C  0.29739370  0.04188360  0.84645376    -0.24100
H448        H  0.28657828  0.03310196  0.90634493     0.14900
H449        H  0.25394591  0.45719297  0.85032846     0.14900
C450        C  0.25692738  0.44739839  0.91141652    -0.24000
H451        H  0.31386786  0.05481408  0.86421466     0.05100
H452        H  0.29044729  0.05794343  0.83147327     0.08400
H453        H  0.30863415  0.03084976  0.83281595     0.08400
H454        H  0.23738382  0.43294711  0.92395877     0.08300
H455        H  0.27644987  0.45643737  0.92782922     0.08300
H456        H  0.26222450  0.43315497  0.89556033     0.05100
C457        C  0.27224136  0.01600303  0.60826199    -0.20700
C458        C  0.24938653  0.49774740  0.59536595    -0.07200
C459        C  0.24945944  0.47315877  0.61499424     0.13600
C460        C  0.24897670  0.47497385  0.64685706    -0.20700
C461        C  0.24811335  0.50044048  0.66001488    -0.07300
C462        C  0.27360248  0.01806340  0.64040092     0.13600
C463        C  0.30014421  0.04136726  0.65563538    -0.24100
H464        H  0.28991353  0.03153661  0.59512059     0.14900
H465        H  0.24941308  0.45620738  0.66167742     0.14900
C466        C  0.25064600  0.44501819  0.60294751    -0.24000
H467        H  0.31659951  0.05431237  0.63877587     0.05100
H468        H  0.31145901  0.03054497  0.67290343     0.08400
H469        H  0.29299722  0.05736069  0.66699875     0.08400
H470        H  0.27036522  0.45041416  0.58904482     0.08300
H471        H  0.23001725  0.43356160  0.58882386     0.08300
H472        H  0.25239131  0.42904965  0.62181565     0.05100
C473        C  0.10994104  0.47692034  0.75503315    -0.20700
C474        C  0.10708662  0.50473950  0.74936947    -0.07200
C475        C  0.13197106  0.52945038  0.74026965     0.13600
C476        C  0.15945217  0.52612660  0.73908038    -0.20700
C477        C  0.16302513  0.49878574  0.74668136    -0.07300
C478        C  0.13750202  0.47349314  0.75380986     0.13600
C479        C  0.13879246  0.44293818  0.76080129    -0.24100
H480        H  0.09059916  0.45788286  0.76133043     0.14900
H481        H  0.17898470  0.04151157  0.72346148     0.14900
C482        C  0.12903583  0.05393724  0.71838472    -0.24000
H483        H  0.11666134  0.42618545  0.76598054     0.05100
H484        H  0.15412165  0.44341982  0.78117639     0.08400
H485        H  0.14971007  0.93326170  0.75122861     0.08400
H486        H  0.12498990  0.56943501  0.75106507     0.08300
H487        H  0.11070285  0.04769328  0.70025673     0.08300
H488        H  0.14951247  0.06887311  0.70751935     0.05100
C489        C  0.36711161  0.47518900  0.76784464    -0.20700
C490        C  0.38981472  0.50036408  0.75652332    -0.07200
C491        C  0.38522821  0.02664968  0.74369035     0.13600
C492        C  0.35582718  0.02541442  0.74477275    -0.20700
C493        C  0.33128849  0.50009663  0.75898398    -0.07300
C494        C  0.33813128  0.47474631  0.76967322     0.13600
C495        C  0.31544508  0.44715049  0.78354283    -0.24100
H496        H  0.37210313  0.45549283  0.77508989     0.14900
H497        H  0.35000966  0.04391245  0.73488611     0.14900
C498        C  0.40795763  0.05369168  0.72924229    -0.24000
H499        H  0.32564126  0.43092766  0.79305609     0.05100
H500        H  0.29810724  0.43563775  0.76581293     0.08400
H501        H  0.30516679  0.45324875  0.80268001     0.08400
H502        H  0.41728145  0.04718667  0.70961998     0.08300
H503        H  0.42605945  0.06422033  0.74665923     0.08300
H504        H  0.39822182  0.07053808  0.72059784     0.05100
C505        C  0.16313597  0.02479186  0.48979471    -0.20700
C506        C  0.16632702  0.50243178  0.50110149    -0.07200
C507        C  0.13716899  0.47413390  0.00845460     0.13600
C508        C  0.10958479  0.47759827  0.00873558    -0.20700
C509        C  0.11023720  0.50860143  0.50400925    -0.07300
C510        C  0.13611621  0.02925555  0.49060485     0.13600
C511        C  0.13579117  0.06024541  0.48399847    -0.24100
H512        H  0.18297965  0.04390840  0.48521820     0.14900
H513        H  0.09064662  0.45928712  0.01701828     0.14900
C514        C  0.13912489  0.44475158  0.02023323    -0.24000
H515        H  0.15766590  0.07607621  0.47679168     0.05100
H516        H  0.13067454  0.06891159  0.50491294     0.08400
H517        H  0.11551274  0.05837533  0.96285497     0.08400
H518        H  0.14990975  0.44449821  0.47542831     0.08300
H519        H  0.14492517  0.43374229  0.00148188     0.08300
H520        H  0.11766340  0.42918364  0.02871532     0.05100
C521        C  0.35244212  0.00652019  0.52291714    -0.20700
C522        C  0.33038545  0.99359693  0.00236023    -0.07200
C523        C  0.33243510  0.46398989  0.00465594     0.13600
C524        C  0.36165492  0.46486327  0.00317560    -0.20700
C525        C  0.38940032  0.99474898  0.00044439    -0.07300
C526        C  0.38171868  0.00699430  0.52258076     0.13600
C527        C  0.40454339  0.02424458  0.54650262    -0.24100
H528        H  0.34693848  0.01890021  0.53982218     0.14900
H529        H  0.36518710  0.44419755  0.00069105     0.14900
C530        C  0.30757958  0.43401702  0.00277526    -0.24000
H531        H  0.39466200  0.03422851  0.56285445     0.05100
H532        H  0.41513146  0.04147234  0.95682403     0.08400
H533        H  0.41415477  0.00922303  0.55996013     0.08400
H534        H  0.29252747  0.43378769  0.98221664     0.08300
H535        H  0.29265671  0.43418296  0.48021173     0.08300
H536        H  0.31601721  0.41567749  0.00073337     0.05100
C537        C  0.49105661  0.02548871  0.86131938    -0.20700
C538        C  0.50907096  0.01500021  0.84518304    -0.07200
C539        C  0.02072311  0.98917584  0.86026302     0.13600
C540        C  0.01018889  0.47745240  0.89228983    -0.20700
C541        C  0.49263806  0.49308153  0.90645893    -0.07300
C542        C  0.47894351  0.51180265  0.89083556     0.13600
C543        C  0.45751874  0.52204260  0.90607148    -0.24100
H544        H  0.48289456  0.04206898  0.85032867     0.14900
H545        H  0.02038995  0.46272737  0.90395633     0.14900
C546        C  0.04265094  0.97909875  0.84576392    -0.24000
H547        H  0.45055863  0.53811691  0.89105685     0.05100
H548        H  0.47629718  0.03700002  0.92971706     0.08400
H549        H  0.43712257  0.50276528  0.91133158     0.08400
H550        H  0.06289462  0.99851476  0.84041482     0.08300
H551        H  0.02636773  0.46582261  0.82474296     0.08300
H552        H  0.04983479  0.96351617  0.86132226     0.05100
C553        C  0.98772552  0.02099962  0.60911838    -0.20700
C554        C  0.50617020  0.01103672  0.59480824    -0.07200
C555        C  0.51631916  0.49219106  0.61065665     0.13600
C556        C  0.50992502  0.48404638  0.64141332    -0.20700
C557        C  0.49102844  0.49436164  0.65635060    -0.07300
C558        C  0.98043540  0.01118667  0.63943245     0.13600
C559        C  0.95886555  0.02155786  0.65421724    -0.24100
H560        H  0.97713617  0.03504470  0.59671590     0.14900
H561        H  0.51941209  0.46907649  0.65379166     0.14900
C562        C  0.53529016  0.47886673  0.59534434    -0.24000
H563        H  0.93837949  0.00234160  0.65935083     0.05100
H564        H  0.95206619  0.03757226  0.63893331     0.08400
H565        H  0.96936478  0.03288942  0.67574250     0.08400
H566        H  0.55624481  0.49657126  0.58848705     0.08300
H567        H  0.52288086  0.46692370  0.57477296     0.08300
H568        H  0.54148418  0.46266884  0.61093730     0.05100
C569        C  0.47055033  0.34107211  0.73334359    -0.20700
C570        C  0.49790901  0.33810148  0.74226602    -0.07200
C571        C  0.02099041  0.35740552  0.75194733     0.13600
C572        C  0.01795365  0.38540670  0.75027064    -0.20700
C573        C  0.49137206  0.39451790  0.74118285    -0.07300
C574        C  0.46682571  0.36862917  0.73275564     0.13600
C575        C  0.43621196  0.36920970  0.72394599    -0.24100
H576        H  0.45161460  0.32150265  0.72697011     0.14900
H577        H  0.03745901  0.40520550  0.75433540     0.14900
C578        C  0.05154704  0.35633486  0.75973748    -0.24000
H579        H  0.41966531  0.34661665  0.71962600     0.05100
H580        H  0.43671239  0.38293268  0.70245702     0.08400
H581        H  0.42829932  0.37826227  0.74281704     0.08400
H582        H  0.05870953  0.34706386  0.74050035     0.08300
H583        H  0.05134551  0.34253439  0.78112154     0.08300
H584        H  0.06846805  0.37882532  0.76363025     0.05100
C585        C  0.48607542  0.12035691  0.74172373    -0.20700
C586        C  0.51084486  0.11640873  0.75781339    -0.07200
C587        C  0.02540238  0.13243475  0.77856423     0.13600
C588        C  0.02135941  0.15989994  0.77687727    -0.20700
C589        C  0.50361217  0.17245449  0.75453063    -0.07300
C590        C  0.48201445  0.14778946  0.74004964     0.13600
C591        C  0.45511347  0.15019687  0.72185594    -0.24100
H592        H  0.46973763  0.10188779  0.72993515     0.14900
H593        H  0.03662167  0.17814164  0.78997062     0.14900
C594        C  0.05071603  0.12958790  0.79937048    -0.24000
H595        H  0.44147772  0.12900842  0.71090619     0.05100
H596        H  0.46223862  0.16777984  0.70334877     0.08400
H597        H  0.44063677  0.15553323  0.73721582     0.08400
H598        H  0.06702042  0.12522825  0.78567357     0.08300
H599        H  0.04198987  0.11133514  0.81692038     0.08300
H600        H  0.06291672  0.15026363  0.81184198     0.05100
C601        C  0.01644405  0.27074836  0.89405837    -0.20700
C602        C  0.49840131  0.25346303  0.90587872    -0.07200
C603        C  0.47556889  0.23281721  0.88769338     0.13600
C604        C  0.47710326  0.23455784  0.85562830    -0.20700
C605        C  0.50063663  0.25636648  0.84087833    -0.07300
C606        C  0.01748002  0.27183561  0.86195245     0.13600
C607        C  0.03951867  0.29882354  0.84650426    -0.24100
H608        H  0.03178348  0.28899911  0.90707440     0.14900
H609        H  0.45986484  0.21835655  0.84194113     0.14900
C610        C  0.44984188  0.20825875  0.90166107    -0.24000
H611        H  0.05214591  0.31595675  0.86322154     0.05100
H612        H  0.02763991  0.30909355  0.82928004     0.08400
H613        H  0.05590633  0.29239957  0.83508740     0.08400
H614        H  0.43587044  0.21790509  0.91309083     0.08300
H615        H  0.45827691  0.19454848  0.91852461     0.08300
H616        H  0.43526245  0.19321706  0.88405221     0.05100
C617        C  0.02304782  0.25481036  0.64624468    -0.20700
C618        C  0.50001962  0.25441603  0.65609004    -0.07200
C619        C  0.47555309  0.25487521  0.63625319     0.13600
C620        C  0.47726997  0.25434954  0.60440528    -0.20700
C621        C  0.50280567  0.25382336  0.59145874    -0.07300
C622        C  0.02530792  0.25526913  0.61433208     0.13600
C623        C  0.05595170  0.26382225  0.60247527    -0.24100
H624        H  0.04326706  0.26069199  0.66091672     0.14900
H625        H  0.45840367  0.25455781  0.58942660     0.14900
C626        C  0.44777626  0.25675023  0.64806233    -0.24000
H627        H  0.07353076  0.26834298  0.62138285     0.05100
H628        H  0.06108630  0.28446365  0.58768310     0.08400
H629        H  0.05723117  0.24538360  0.58938920     0.08400
H630        H  0.45367166  0.27648943  0.66240125     0.08300
H631        H  0.43593957  0.23616915  0.66170099     0.08300
H632        H  0.43203024  0.25906445  0.62906488     0.05100
C633        C  0.46849005  0.36818851  0.99391392    -0.20700
C634        C  0.49509051  0.39298191  0.99505706    -0.07200
C635        C  0.01201539  0.37877665  0.01835753     0.13600
C636        C  0.01317013  0.35015444  0.01773093    -0.20700
C637        C  0.49550869  0.33400915  0.99605243    -0.07300
C638        C  0.46815136  0.33896166  0.99452539     0.13600
C639        C  0.43820550  0.31398395  0.99359668    -0.24100
H640        H  0.44752010  0.37172737  0.99278948     0.14900
H641        H  0.02782612  0.34357738  0.03420888     0.14900
C642        C  0.05143664  0.41100280  0.48959544    -0.24000
H643        H  0.41955379  0.32236953  0.99255200     0.05100
H644        H  0.43613316  0.29940779  0.01469190     0.08400
H645        H  0.43541097  0.30091559  0.97283819     0.08400
H646        H  0.05694929  0.42532632  0.50971591     0.08300
H647        H  0.04733047  0.41941515  0.03116964     0.08300
H648        H  0.07009133  0.40304227  0.48767833     0.05100
C649        C  0.49281597  0.15196239  0.97668555    -0.20700
C650        C  0.50081432  0.16636940  0.50763171    -0.07200
C651        C  0.01994426  0.15709820  0.52740751     0.13600
C652        C  0.02040296  0.12825311  0.52679890    -0.20700
C653        C  0.50252815  0.10814715  0.50795530    -0.07300
C654        C  0.49413618  0.12335760  0.97626618     0.13600
C655        C  0.48416762  0.10640747  0.94715293    -0.24100
H656        H  0.48396466  0.16103764  0.95657062     0.14900
H657        H  0.03390465  0.12128133  0.54431234     0.14900
C658        C  0.03729632  0.17699164  0.55287917    -0.24000
H659        H  0.47738526  0.11968077  0.92837331     0.05100
H660        H  0.46471694  0.08578103  0.95119260     0.08400
H661        H  0.50264342  0.10066274  0.93921119     0.08400
H662        H  0.02206636  0.18400052  0.56563079     0.08300
H663        H  0.05478229  0.19697547  0.54326189     0.08300
H664        H  0.04844606  0.16546293  0.56952545     0.05100
O665        O  0.01925231  0.75508208  0.04533121    -0.74800
O666        O  0.02169115  0.75686184  0.45681044    -0.74800
O667        O  0.02326136  0.79676852  0.49861535    -0.74900
O668        O  0.01934769  0.71526790  0.00452717    -0.74900
O669        O  0.47114965  0.70149133  0.00517166    -0.74900
O670        O  0.47311810  0.77902039  0.49901004    -0.74800
O671        O  0.47267186  0.73829028  0.45907742    -0.74800
O672        O  0.47127481  0.74156384  0.04613065    -0.74900
Ni673      Ni  0.02399477  0.75727674  0.50085431     1.25400
Ni674      Ni  0.46860135  0.74021097  0.00210740     1.25400
C675        C  0.49630617  0.75142038  0.06163410     0.87400
C676        C  0.49713766  0.74707250  0.44550802     0.87300
C677        C  0.99869063  0.80132452  0.49636344     0.87300
C678        C  0.99476698  0.69303418  0.00410160     0.87500
O679        O  0.47220242  0.78150718  0.25117549    -0.74800
O680        O  0.47196821  0.70189797  0.25417671    -0.74800
O681        O  0.47336069  0.74101972  0.29684169    -0.74900
O682        O  0.47075398  0.74232293  0.20892559    -0.74900
O683        O  0.01860939  0.75715649  0.20617381    -0.74900
O684        O  0.02191341  0.75753178  0.29409004    -0.74800
O685        O  0.02069619  0.71784387  0.25236163    -0.74800
O686        O  0.01981535  0.79684514  0.24784645    -0.74900
Ni687      Ni  0.47029325  0.74106855  0.25278349     1.25400
Ni688      Ni  0.02200186  0.75798872  0.25015125     1.25400
C689        C  0.49693730  0.80367042  0.25093247     0.87400
C690        C  0.49686819  0.69800471  0.25546640     0.87300
C691        C  0.49852107  0.75011929  0.31214681     0.87300
C692        C  0.49500074  0.75125614  0.19499155     0.87500
O693        O  0.41967929  0.96587499  0.48675230    -0.81300
O694        O  0.05745093  0.98744337  0.49102039    -0.66000
O695        O  0.47781532  0.97874633  0.00695596    -1.12600
C696        C  0.50338373  0.58142177  0.00656788     1.05600
O697        O  0.07591900  0.53047547  0.01290881    -0.79200
O698        O  0.03275936  0.52416925  0.05234577    -0.66700
Ni699      Ni  0.44820461  0.94724228  0.48334912     1.34900
C700        C  0.51090798  0.52430816  0.06234434     0.84400
O701        O  0.01254781  0.94051302  0.50873778    -0.79700
O702        O  0.47170626  0.92311272  0.47812821    -0.90000
C703        C  0.07950691  0.00786176  0.00134045     0.83900
O704        O  0.46207243  0.97071473  0.44723626    -0.68200
O705        O  0.02260941  0.57177795  0.02203885    -0.87500
C706        C  0.48822122  0.97837153  0.43814615     0.84800
C707        C  0.49347671  0.91975210  0.49409414     1.06300
H708        H  0.02343401  0.52991106  0.47190910     0.38100
O709        O  0.01998972  0.52318450  0.49307382    -1.10100
O710        O  0.48864440  0.52471552  0.04485572    -0.66800
Ni711      Ni  0.47978483  0.51903197  0.00117416     1.26300
O712        O  0.00870632  0.97468954  0.45617579    -0.67000
O713        O  0.48414311  0.55966975  0.99305615    -0.79300
C714        C  0.41633827  0.49041304  0.00053085     0.84100
O715        O  0.43957881  0.51129193  0.00984190    -0.66500
Ni716      Ni  0.04675579  0.54830375  0.01664067     1.27400
Ni717      Ni  0.01768207  0.98109600  0.49972126     1.26100
H718        H  0.47449798  0.97287725  0.02827845     0.38700
O719        O  0.41927161  0.96958398  0.23903692    -0.81300
O720        O  0.05544251  0.98567601  0.24165947    -0.66000
O721        O  0.47787094  0.97860792  0.25755623    -1.12600
C722        C  0.50666900  0.58154235  0.25851666     1.05600
O723        O  0.07706138  0.53058297  0.26140591    -0.79200
O724        O  0.03440368  0.52554553  0.30141692    -0.66700
Ni725      Ni  0.44731773  0.95116983  0.23238818     1.34900
C726        C  0.51199831  0.52144532  0.31200817     0.84400
O727        O  0.00839547  0.93931901  0.25749081    -0.79700
O728        O  0.47034749  0.92734603  0.22425134    -0.90000
C729        C  0.07943037  0.00579298  0.25080009     0.83900
O730        O  0.46073653  0.97615207  0.19685869    -0.68200
O731        O  0.02599660  0.57393056  0.27177570    -0.87500
C732        C  0.48656172  0.98281974  0.18707080     0.84800
C733        C  0.49077394  0.92204606  0.24070257     1.06300
H734        H  0.02175268  0.52770364  0.21939325     0.38100
O735        O  0.01848822  0.52171005  0.24075145    -1.10100
O736        O  0.49015167  0.52399154  0.29510563    -0.66800
Ni737      Ni  0.48071087  0.51957224  0.25116933     1.26300
O738        O  0.00638665  0.97635991  0.20634689    -0.67000
O739        O  0.48704152  0.56083580  0.24391860    -0.79300
C740        C  0.41947559  0.99311911  0.25072488     0.84100
O741        O  0.44066615  0.51335378  0.25972011    -0.66500
Ni742      Ni  0.04888372  0.54955338  0.26571368     1.27400
Ni743      Ni  0.01579338  0.98072741  0.25023188     1.26100
H744        H  0.47484663  0.97212746  0.27883401     0.38700
O745        O  0.21920665  0.52434482  0.50007350    -0.74800
O746        O  0.29696023  0.51967400  0.50341723    -0.74800
O747        O  0.25668334  0.52157370  0.45765259    -0.74900
O748        O  0.25487328  0.51981689  0.04547538    -0.74900
O749        O  0.23883298  0.97075858  0.04440852    -0.74900
O750        O  0.23689455  0.96713780  0.45747911    -0.74800
O751        O  0.27707566  0.96982513  0.00240291    -0.74800
O752        O  0.19838962  0.97194046  0.99865700    -0.74900
Ni753      Ni  0.25881270  0.52375831  0.50163295     1.25400
Ni754      Ni  0.23701702  0.96908151  0.00062051     1.25400
C755        C  0.19261835  0.49711026  0.99876998     0.87400
C756        C  0.29941265  0.49405448  0.50424758     0.89500
C757        C  0.24633046  0.49662768  0.44429401     0.87300
C758        C  0.24486482  0.49505883  0.06097698     0.87500
O759        O  0.23864804  0.96904840  0.29445294    -0.74800
O760        O  0.23860304  0.97191157  0.20636516    -0.74800
O761        O  0.27816580  0.97013826  0.25317072    -0.74900
O762        O  0.19893286  0.97058562  0.24772006    -0.74900
O763        O  0.21565509  0.52317684  0.24966015    -0.74900
O764        O  0.29533091  0.52327031  0.25325742    -0.74800
O765        O  0.25413886  0.52329423  0.20756397    -0.74800
O766        O  0.25681417  0.52314302  0.29540844    -0.74900
Ni767      Ni  0.23793887  0.96866605  0.25041084     1.25400
Ni768      Ni  0.25610154  0.52497235  0.25144175     1.25400
C769        C  0.24837333  0.99348402  0.30866870     0.87400
C770        C  0.24793231  0.99713522  0.19152542     0.87300
C771        C  0.30052079  0.99464304  0.25398475     0.87300
C772        C  0.19486448  0.99539965  0.24695737     0.87500
C773        C  0.26686057  0.52085748  0.39473974    -0.20700
C774        C  0.24698989  0.99103403  0.40757233    -0.07200
C775        C  0.22338739  0.97093488  0.38971951     0.13600
C776        C  0.22463558  0.97212651  0.35758364    -0.20700
C777        C  0.24889702  0.99268182  0.34271629    -0.07300
C778        C  0.26865735  0.52210088  0.36269599     0.13600
C779        C  0.29229763  0.54843855  0.34814439    -0.24100
H780        H  0.28183891  0.53918979  0.40789639     0.14900
H781        H  0.20628331  0.95718662  0.34388888     0.14900
C782        C  0.19635776  0.94876817  0.40416373    -0.24000
H783        H  0.30700265  0.56356709  0.36561289     0.05100
H784        H  0.28188319  0.56169371  0.33294861     0.08400
H785        H  0.30648871  0.54060362  0.33474230     0.08400
H786        H  0.18594295  0.96051727  0.41792320     0.08300
H787        H  0.20276794  0.93233353  0.41911448     0.08300
H788        H  0.17939164  0.93616021  0.38660649     0.05100
C789        C  0.24270133  0.52037938  0.10811598    -0.20700
C790        C  0.24775191  0.99524375  0.09234511    -0.07200
C791        C  0.22845567  0.97107728  0.10983976     0.13600
C792        C  0.22889279  0.97284907  0.14183754    -0.20700
C793        C  0.24815624  0.99783545  0.15732140    -0.07300
C794        C  0.24235116  0.52224336  0.14005976     0.13600
C795        C  0.23912921  0.54944951  0.15214590    -0.24100
H796        H  0.24110630  0.53862896  0.09315104     0.14900
H797        H  0.21391686  0.95436934  0.15493551     0.14900
C798        C  0.20687396  0.94336629  0.09529016    -0.24000
H799        H  0.23585173  0.56472837  0.13327442     0.05100
H800        H  0.25952963  0.56215273  0.16595930     0.08400
H801        H  0.21952263  0.54269671  0.16643379     0.08400
H802        H  0.21919148  0.93141535  0.08458868     0.08300
H803        H  0.19192795  0.94940678  0.07778441     0.08300
H804        H  0.19268980  0.92759378  0.11240304     0.05100
C805        C  0.11119017  0.97496393  0.25497400    -0.20700
C806        C  0.10815719  0.00237088  0.24683160    -0.07200
C807        C  0.13300706  0.02647107  0.23649610     0.13600
C808        C  0.16050560  0.02297087  0.23598678    -0.20700
C809        C  0.16418318  0.99609499  0.24568779    -0.07300
C810        C  0.13887245  0.97148834  0.25484507     0.13600
C811        C  0.14071872  0.94182735  0.26563038    -0.24100
H812        H  0.09199928  0.95648535  0.26265681     0.14900
H813        H  0.17620915  0.54118809  0.22372974     0.14900
C814        C  0.12609693  0.55364935  0.21696775    -0.24000
H815        H  0.11897102  0.92578081  0.27293634     0.05100
H816        H  0.15699815  0.94478154  0.28563303     0.08400
H817        H  0.14793829  0.43548215  0.26338092     0.08400
H818        H  0.12592375  0.06703325  0.24470809     0.08300
H819        H  0.10816193  0.54649682  0.19851586     0.08300
H820        H  0.14675784  0.56837333  0.20625820     0.05100
C821        C  0.36732734  0.96963425  0.26490438    -0.20700
C822        C  0.39028543  0.99537393  0.25491876    -0.07200
C823        C  0.38088322  0.51215297  0.27384770     0.13600
C824        C  0.35189381  0.51263753  0.27415580    -0.20700
C825        C  0.33134903  0.99434919  0.25595339    -0.07300
C826        C  0.33805967  0.96871292  0.26577257     0.13600
C827        C  0.31491979  0.94026132  0.27749132    -0.24100
H828        H  0.37231383  0.94983745  0.27166691     0.14900
H829        H  0.34643872  0.52406105  0.29202284     0.14900
C830        C  0.40362054  0.52754371  0.29874354    -0.24000
H831        H  0.32483611  0.92351705  0.28599291     0.05100
H832        H  0.29817644  0.93001472  0.25875819     0.08400
H833        H  0.30394102  0.94496040  0.29690333     0.08400
H834        H  0.42227206  0.54600643  0.28852741     0.08300
H835        H  0.41219394  0.51135712  0.31147241     0.08300
H836        H  0.39400075  0.53731501  0.31555158     0.05100
C837        C  0.15845793  0.52523212  0.98832814    -0.20700
C838        C  0.16446750  0.99845391  0.99677083    -0.07200
C839        C  0.13864774  0.97162730  0.50028513     0.13600
C840        C  0.11151097  0.97613420  0.50078054    -0.20700
C841        C  0.10874707  0.00528553  0.99833911    -0.07300
C842        C  0.13091809  0.52874177  0.98912015     0.13600
C843        C  0.12847821  0.55813903  0.97819341    -0.24100
H844        H  0.17731287  0.54381375  0.98022053     0.14900
H845        H  0.09139171  0.95724130  0.50518380     0.14900
C846        C  0.13836520  0.94032087  0.50573847    -0.24000
H847        H  0.14951343  0.57373498  0.96887259     0.05100
H848        H  0.12353436  0.56906742  0.99755078     0.08400
H849        H  0.12866457  0.56726810  0.53031641     0.08400
H850        H  0.15500051  0.94445579  0.03337837     0.08300
H851        H  0.14672760  0.93354328  0.48559597     0.08300
H852        H  0.11559054  0.92397288  0.50908499     0.05100
C853        C  0.35211321  0.51760428  0.00995526    -0.20700
C854        C  0.32920019  0.49215201  0.50297967    -0.07200
C855        C  0.33689553  0.97409620  0.47961062     0.13600
C856        C  0.36599432  0.97455617  0.47918920    -0.20700
C857        C  0.38744311  0.49152991  0.49980677    -0.07300
C858        C  0.38140473  0.51836437  0.00884586     0.13600
C859        C  0.40654755  0.54801132  0.01149458    -0.24100
H860        H  0.34861837  0.53826349  0.01255808     0.14900
H861        H  0.37110349  0.96239986  0.46178514     0.14900
C862        C  0.31403177  0.95767174  0.45524128    -0.24000
H863        H  0.39838762  0.56650822  0.01376207     0.05100
H864        H  0.42362812  0.54982355  0.52258388     0.08400
H865        H  0.42124341  0.54759349  0.03218353     0.08400
H866        H  0.30512455  0.97335015  0.44198325     0.08300
H867        H  0.30473294  0.94626627  0.04616953     0.08300
H868        H  0.32365227  0.94750262  0.43881525     0.05100
C869        C  0.48665813  0.51872639  0.35988211    -0.20700
C870        C  0.50700030  0.51085817  0.34446019    -0.07200
C871        C  0.01721069  0.49028172  0.35897803     0.13600
C872        C  0.01237827  0.97824100  0.39129050    -0.20700
C873        C  0.49358709  0.98885774  0.40579088    -0.07300
C874        C  0.47977481  0.00759724  0.39037632     0.13600
C875        C  0.45923948  0.01856931  0.40623545    -0.24100
H876        H  0.47599724  0.53300975  0.34810324     0.14900
H877        H  0.02237025  0.96340188  0.40308767     0.14900
C878        C  0.03758646  0.47892688  0.34335564    -0.24000
H879        H  0.45229388  0.03475316  0.39139460     0.05100
H880        H  0.47010147  0.53054886  0.42729446     0.08400
H881        H  0.43875388  0.99966594  0.41210848     0.08400
H882        H  0.05794263  0.49770412  0.33689859     0.08300
H883        H  0.03012819  0.96733979  0.32405522     0.08300
H884        H  0.04485944  0.46322212  0.35862029     0.05100
C885        C  0.98081264  0.51451623  0.10833869    -0.20700
C886        C  0.50594513  0.51431584  0.09482424    -0.07200
C887        C  0.52242175  0.99782139  0.11066095     0.13600
C888        C  0.51507171  0.98800500  0.14090084    -0.20700
C889        C  0.49205661  0.99315452  0.15453265    -0.07300
C890        C  0.97424632  0.50512813  0.13879743     0.13600
C891        C  0.95340810  0.51612438  0.15408610    -0.24100
H892        H  0.97071257  0.52920214  0.09639796     0.14900
H893        H  0.52741468  0.97598439  0.15399952     0.14900
C894        C  0.54699930  0.99068795  0.09757530    -0.24000
H895        H  0.93299200  0.49714566  0.16000571     0.05100
H896        H  0.94631212  0.53194210  0.13880425     0.08400
H897        H  0.96463000  0.52783977  0.17519071     0.08400
H898        H  0.56592284  0.01153310  0.09248256     0.08300
H899        H  0.53852871  0.97810026  0.07632461     0.08300
H900        H  0.55577412  0.97684449  0.11394151     0.05100
C901        C  0.47103803  0.83827138  0.23427288    -0.20700
C902        C  0.49651266  0.83435861  0.24830604    -0.07200
C903        C  0.02007644  0.85787723  0.24285754     0.13600
C904        C  0.01721848  0.88587547  0.24243412    -0.20700
C905        C  0.49223327  0.89164297  0.24203960    -0.07300
C906        C  0.46842145  0.86631389  0.23099356     0.13600
C907        C  0.43980352  0.86799904  0.21610677    -0.24100
H908        H  0.45288749  0.81910333  0.22557265     0.14900
H909        H  0.03679167  0.90591102  0.24027425     0.14900
C910        C  0.05073601  0.85711314  0.24023095    -0.24000
H911        H  0.42363566  0.84574159  0.20987305     0.05100
H912        H  0.44436383  0.88202320  0.19457576     0.08400
H913        H  0.42899296  0.87724421  0.23220896     0.08400
H914        H  0.05101145  0.84483143  0.21969845     0.08300
H915        H  0.05738061  0.84637408  0.26129386     0.08300
H916        H  0.06779250  0.87982188  0.23767358     0.05100
C917        C  0.48293403  0.61763697  0.23808783    -0.20700
C918        C  0.50403503  0.61143997  0.25871401    -0.07200
C919        C  0.02877822  0.63460698  0.25567267     0.13600
C920        C  0.02547237  0.66227769  0.25519318    -0.20700
C921        C  0.49769139  0.66769467  0.25655961    -0.07300
C922        C  0.47977656  0.64554640  0.23651744     0.13600
C923        C  0.45838875  0.65165474  0.21248076    -0.24100
H924        H  0.46918210  0.60078017  0.22255933     0.14900
H925        H  0.04533751  0.68215700  0.25608690     0.14900
C926        C  0.05985348  0.63399502  0.25635589    -0.24000
H927        H  0.44738765  0.63237330  0.19766165     0.05100
H928        H  0.47051411  0.67113792  0.19749158     0.08400
H929        H  0.44073640  0.65626301  0.22364736     0.08400
H930        H  0.06193628  0.62148542  0.23674389     0.08300
H931        H  0.06494888  0.62348069  0.27832245     0.08300
H932        H  0.07696612  0.65674368  0.25454684     0.05100
C933        C  0.01976170  0.76934250  0.39186173    -0.20700
C934        C  0.49695222  0.74672172  0.41140534    -0.07200
C935        C  0.47273350  0.72791027  0.39312953     0.13600
C936        C  0.47416751  0.72964929  0.36102584    -0.20700
C937        C  0.49918971  0.74929312  0.34637601    -0.07300
C938        C  0.02109675  0.77025845  0.35976416     0.13600
C939        C  0.04611019  0.79494146  0.34491883    -0.24100
H940        H  0.03681445  0.78610579  0.40515681     0.14900
H941        H  0.45553184  0.71525159  0.34723242     0.14900
C942        C  0.44555334  0.70533637  0.40699099    -0.24000
H943        H  0.06061393  0.81070230  0.36200165     0.05100
H944        H  0.03690839  0.80779164  0.32774646     0.08400
H945        H  0.06031801  0.78551035  0.33359091     0.08400
H946        H  0.43329260  0.71679869  0.41853547     0.08300
H947        H  0.45223967  0.69025433  0.42372780     0.08300
H948        H  0.42990364  0.69133958  0.38929379     0.05100
C949        C  0.01470946  0.76927863  0.14155700    -0.20700
C950        C  0.49445111  0.75142562  0.16075927    -0.07200
C951        C  0.46842334  0.74739636  0.14141161     0.13600
C952        C  0.47006473  0.74781616  0.10941551    -0.20700
C953        C  0.49681375  0.75206371  0.09578825    -0.07300
C954        C  0.01579169  0.77005299  0.10949402     0.13600
C955        C  0.03870688  0.79638009  0.09408147    -0.24100
H956        H  0.03105849  0.78689319  0.15454163     0.14900
H957        H  0.45007357  0.74479411  0.09488749     0.14900
C958        C  0.43875616  0.74296007  0.15381830    -0.24000
H959        H  0.05192000  0.81326618  0.11080128     0.05100
H960        H  0.02746176  0.80732950  0.07689380     0.08400
H961        H  0.05451044  0.78910557  0.08268383     0.08400
H962        H  0.44072818  0.76206858  0.16781215     0.08300
H963        H  0.43096074  0.72186076  0.16790533     0.08300
H964        H  0.42138664  0.74146435  0.13516266     0.05100
C965        C  0.47942899  0.86944056  0.47336097    -0.20700
C966        C  0.49658599  0.89007179  0.49512032    -0.07200
C967        C  0.01323206  0.87965268  0.51921760     0.13600
C968        C  0.01393584  0.85083237  0.51857694    -0.20700
C969        C  0.49742957  0.83166185  0.49648363    -0.07300
C970        C  0.47947934  0.84039299  0.47385895     0.13600
C971        C  0.46093219  0.81946038  0.44968404    -0.24100
H972        H  0.46559687  0.87592600  0.45582898     0.14900
H973        H  0.02534216  0.84259056  0.53725293     0.14900
C974        C  0.03213079  0.89913664  0.03892920    -0.24000
H975        H  0.44958382  0.83055812  0.43275823     0.05100
H976        H  0.44348545  0.80026631  0.46053533     0.08400
H977        H  0.47533865  0.81129067  0.43699590     0.08400
H978        H  0.01819253  0.90645351  0.05320804     0.08300
H979        H  0.04658284  0.91868814  0.53855945     0.08300
H980        H  0.04436160  0.88784985  0.05452931     0.05100
C981        C  0.47984100  0.64526782  0.48925479    -0.20700
C982        C  0.49684259  0.66780376  0.00831843    -0.07200
C983        C  0.01456260  0.65416643  0.02719130     0.13600
C984        C  0.01513326  0.62537380  0.02685862    -0.20700
C985        C  0.49920912  0.61036922  0.00677186    -0.07300
C986        C  0.48072011  0.61663067  0.48749710     0.13600
C987        C  0.46040297  0.59651181  0.46364995    -0.24100
H988        H  0.46474101  0.65216934  0.47370433     0.14900
H989        H  0.02991611  0.61918315  0.04346716     0.14900
C990        C  0.03402275  0.67511188  0.05092060    -0.24000
H991        H  0.44667723  0.60747059  0.44985570     0.05100
H992        H  0.44487459  0.57612839  0.47491033     0.08400
H993        H  0.47375480  0.59042770  0.44752621     0.08400
H994        H  0.02013267  0.68294967  0.06473529     0.08300
H995        H  0.05084176  0.69448949  0.03957180     0.08300
H996        H  0.04625981  0.66414864  0.06692047     0.05100
O997        O  0.02281035  0.75649492  0.54458479    -0.74800
O998        O  0.01863420  0.75452925  0.95763064    -0.74800
O999        O  0.01891997  0.79443811  0.99865476    -0.74900
O1000       O  0.02117765  0.71660863  0.50328246    -0.74900
O1001       O  0.47378395  0.69992170  0.50647922    -0.74900
O1002       O  0.46947423  0.78023977  0.99880991    -0.74800
O1003       O  0.46966226  0.74026717  0.95834362    -0.74800
O1004       O  0.47455976  0.74064551  0.54677292    -0.74900
Ni1005     Ni  0.02078334  0.75544412  0.00161377     1.25400
Ni1006     Ni  0.47176220  0.73883452  0.50281822     1.25400
C1007       C  0.49959027  0.74995587  0.56234331     0.87400
C1008       C  0.49424206  0.74926474  0.94496330     0.87300
C1009       C  0.99405833  0.79839809  0.99613866     0.87300
C1010       C  0.99607257  0.69502333  0.50311362     0.87500
O1011       O  0.47237612  0.78400892  0.75054901    -0.74800
O1012       O  0.47328956  0.70477293  0.75431288    -0.74800
O1013       O  0.47290145  0.74358882  0.79636749    -0.74900
O1014       O  0.47265408  0.74489602  0.70869809    -0.74900
O1015       O  0.02099100  0.75707671  0.70738848    -0.74900
O1016       O  0.02189879  0.75691699  0.79526995    -0.74800
O1017       O  0.02163882  0.71734435  0.75403459    -0.74800
O1018       O  0.02132795  0.79682028  0.74896547    -0.74900
Ni1019     Ni  0.47104739  0.74370246  0.75240106     1.25400
Ni1020     Ni  0.02322930  0.75769160  0.75146148     1.25400
C1021       C  0.49694401  0.80641476  0.75090319     0.87400
C1022       C  0.49830207  0.70108245  0.75653463     0.87300
C1023       C  0.49768368  0.75321600  0.81222521     0.87300
C1024       C  0.49720510  0.75357174  0.69533381     0.87500
O1025       O  0.41926318  0.96901661  0.98655641    -0.81300
O1026       O  0.05628665  0.98710637  0.99164862    -0.66000
O1027       O  0.47804453  0.97577797  0.50816618    -1.12600
C1028       C  0.50507113  0.57888455  0.50655367     1.05600
O1029       O  0.07794172  0.53299172  0.51699101    -0.79200
O1030       O  0.03449277  0.52812588  0.55455690    -0.66700
Ni1031     Ni  0.44774592  0.95054085  0.98198812     1.34900
C1032       C  0.50980042  0.52104399  0.56204534     0.84400
O1033       O  0.01046621  0.93902777  0.00599816    -0.79700
O1034       O  0.47105461  0.92634842  0.97592805    -0.90000
C1035       C  0.08100240  0.00808852  0.49996429     0.83900
O1036       O  0.46195900  0.97504236  0.94641491    -0.68200
O1037       O  0.02486939  0.57549921  0.52258353    -0.87500
C1038       C  0.48811263  0.98201853  0.93745269     0.84800
C1039       C  0.49203096  0.92207717  0.99256538     1.06300
H1040       H  0.02066083  0.52493314  0.97056627     0.38100
O1041       O  0.01722359  0.51932458  0.99197002    -1.10100
O1042       O  0.48832110  0.52236225  0.54384686    -0.66800
Ni1043     Ni  0.48087428  0.51690297  0.49993763     1.26300
O1044       O  0.00821113  0.97564023  0.95502265    -0.67000
O1045       O  0.48634004  0.55773703  0.49181963    -0.79300
C1046       C  0.41727902  0.48939037  0.49729444     0.84100
O1047       O  0.44053486  0.51005961  0.50689093    -0.66500
Ni1048     Ni  0.04900593  0.55159122  0.51869822     1.27400
Ni1049     Ni  0.01596239  0.98000391  0.99897785     1.26100
H1050       H  0.47488291  0.96965809  0.52944549     0.38700
O1051       O  0.42074741  0.97564923  0.73947812    -0.81300
O1052       O  0.05629793  0.98589610  0.74092006    -0.66000
O1053       O  0.47869740  0.98287134  0.75931793    -1.12600
C1054       C  0.50870553  0.58487199  0.75967514     1.05600
O1055       O  0.07781800  0.53030690  0.76582277    -0.79200
O1056       O  0.03548834  0.52535158  0.80583607    -0.66700
Ni1057     Ni  0.44769801  0.95556119  0.73448493     1.34900
C1058       C  0.51282696  0.52508640  0.81350457     0.84400
O1059       O  0.00913134  0.93963963  0.75621778    -0.79700
O1060       O  0.46948761  0.93009220  0.72790889    -0.90000
C1061       C  0.08018636  0.00632492  0.74959383     0.83900
O1062       O  0.46206525  0.97933042  0.69863051    -0.68200
O1063       O  0.02693331  0.57404343  0.77639435    -0.87500
C1064       C  0.48780209  0.98487699  0.68917844     0.84800
C1065       C  0.48995855  0.92474270  0.74427517     1.06300
H1066       H  0.02304692  0.52838568  0.72368076     0.38100
O1067       O  0.01964207  0.52177651  0.74487397    -1.10100
O1068       O  0.49133471  0.52778310  0.79623834    -0.66800
Ni1069     Ni  0.48230461  0.52306087  0.75241962     1.26300
O1070       O  0.00819624  0.97678366  0.70477739    -0.67000
O1071       O  0.48914990  0.56426236  0.74495602    -0.79300
C1072       C  0.42150451  0.99944688  0.75098927     0.84100
O1073       O  0.44263395  0.51787528  0.76091493    -0.66500
Ni1074     Ni  0.04980386  0.54944678  0.77023117     1.27400
Ni1075     Ni  0.01655451  0.98094934  0.74874698     1.26100
H1076       H  0.47541009  0.97688720  0.78067170     0.38700
O1077       O  0.21537903  0.52139022  0.99860099    -0.74800
O1078       O  0.29379729  0.51785873  0.00451760    -0.74800
O1079       O  0.25431351  0.51972809  0.95761349    -0.74900
O1080       O  0.25951607  0.52225528  0.54571648    -0.74900
O1081       O  0.23894135  0.96845468  0.54538292    -0.74900
O1082       O  0.23629484  0.97075097  0.95669021    -0.74800
O1083       O  0.27725896  0.96652184  0.50351070    -0.74800
O1084       O  0.19874760  0.96931233  0.49891674    -0.74900
Ni1085     Ni  0.25530237  0.52148558  0.00147129     1.25400
Ni1086     Ni  0.23729566  0.96610125  0.50147635     1.25400
C1087       C  0.19617556  0.50035434  0.50067095     0.87400
C1088       C  0.29686257  0.49243592  0.00646895     0.89500
C1089       C  0.24501010  0.49492557  0.94408136     0.87300
C1090       C  0.24953096  0.49752943  0.56130419     0.87500
O1091       O  0.23999201  0.97338895  0.79516169    -0.74800
O1092       O  0.24126514  0.97347757  0.70742055    -0.74800
O1093       O  0.28075629  0.97448855  0.75523466    -0.74900
O1094       O  0.20065555  0.97266774  0.74763532    -0.74900
O1095       O  0.21585414  0.52335460  0.74838392    -0.74900
O1096       O  0.29591398  0.52479853  0.75515976    -0.74800
O1097       O  0.25614832  0.52477030  0.70795734    -0.74800
O1098       O  0.25546609  0.52361632  0.79554236    -0.74900
Ni1099     Ni  0.24008718  0.97174863  0.75139899     1.25400
Ni1100     Ni  0.25644550  0.52588600  0.75170274     1.25400
C1101       C  0.24852943  0.99821056  0.80855378     0.87400
C1102       C  0.25038300  0.99821662  0.69175209     0.87300
C1103       C  0.30254587  0.99948518  0.75544056     0.87300
C1104       C  0.19598036  0.99721885  0.74591629     0.87500
C1105       C  0.24108602  0.51909012  0.89281346    -0.20700
C1106       C  0.24534204  0.99564467  0.90721758    -0.07200
C1107       C  0.22258991  0.97480212  0.88920427     0.13600
C1108       C  0.22425173  0.97629905  0.85711066    -0.20700
C1109       C  0.24793877  0.99808633  0.84247806    -0.07300
C1110       C  0.24133981  0.52106601  0.86060650     0.13600
C1111       C  0.23595522  0.54713365  0.84378190    -0.24100
H1112       H  0.23732249  0.53635089  0.90467761     0.14900
H1113       H  0.20675353  0.96050033  0.84327821     0.14900
C1114       C  0.19608667  0.95149142  0.90340765    -0.24000
H1115       H  0.23117880  0.56166270  0.85970852     0.05100
H1116       H  0.21656277  0.53899602  0.82704411     0.08400
H1117       H  0.25599840  0.56113295  0.83168461     0.08400
H1118       H  0.18473315  0.96230992  0.91716953     0.08300
H1119       H  0.20329671  0.93555510  0.91830907     0.08300
H1120       H  0.17963339  0.93844820  0.88569333     0.05100
C1121       C  0.24858663  0.52327513  0.60849414    -0.20700
C1122       C  0.24873919  0.99397387  0.59278156    -0.07200
C1123       C  0.22585114  0.97354138  0.61014244     0.13600
C1124       C  0.22724423  0.97559739  0.64223192    -0.20700
C1125       C  0.25064014  0.99767804  0.65769840    -0.07300
C1126       C  0.24761515  0.52489727  0.64037193     0.13600
C1127       C  0.24501499  0.55243029  0.65238862    -0.24100
H1128       H  0.24809348  0.54198827  0.59361095     0.14900
H1129       H  0.20958288  0.96003671  0.65536847     0.14900
C1130       C  0.19924968  0.95017279  0.59505224    -0.24000
H1131       H  0.24281974  0.56818805  0.63349573     0.05100
H1132       H  0.26520849  0.56443655  0.66685244     0.08400
H1133       H  0.22497011  0.54614924  0.66596928     0.08400
H1134       H  0.20630006  0.93387678  0.58411023     0.08300
H1135       H  0.18809804  0.96089465  0.57750368     0.08300
H1136       H  0.18265138  0.93756397  0.61191200     0.05100
C1137       C  0.11273858  0.97638124  0.75632285    -0.20700
C1138       C  0.10886352  0.00288835  0.74573878    -0.07200
C1139       C  0.13283231  0.02621416  0.73293712     0.13600
C1140       C  0.16060080  0.02325224  0.73285965    -0.20700
C1141       C  0.16513850  0.99733429  0.74471778    -0.07300
C1142       C  0.14057445  0.97325873  0.75614988     0.13600
C1143       C  0.14346743  0.94467626  0.76930836    -0.24100
H1144       H  0.09411454  0.95842086  0.76578937     0.14900
H1145       H  0.17845693  0.54536969  0.73252567     0.14900
C1146       C  0.12969275  0.55927521  0.73097374    -0.24000
H1147       H  0.12223480  0.92899749  0.77817172     0.05100
H1148       H  0.16053273  0.94948606  0.78871613     0.08400
H1149       H  0.14636580  0.43536638  0.74062992     0.08400
H1150       H  0.12393435  0.06673025  0.73591698     0.08300
H1151       H  0.11174297  0.55646783  0.71267483     0.08300
H1152       H  0.15069704  0.57515971  0.72185846     0.05100
C1153       C  0.37083001  0.97753339  0.76899471    -0.20700
C1154       C  0.39255850  0.00202919  0.75524757    -0.07200
C1155       C  0.38374504  0.52642721  0.74792464     0.13600
C1156       C  0.35452973  0.52590645  0.74908117    -0.20700
C1157       C  0.33362622  0.00025952  0.75735992    -0.07300
C1158       C  0.34163043  0.97644525  0.77070506     0.13600
C1159       C  0.32001487  0.95009210  0.78747156    -0.24100
H1160       H  0.37677241  0.95889863  0.77826329     0.14900
H1161       H  0.34971622  0.54557597  0.74136037     0.14900
C1162       C  0.40760880  0.55434463  0.73631306    -0.24000
H1163       H  0.33105087  0.93514481  0.79860103     0.05100
H1164       H  0.30217402  0.93661044  0.77123907     0.08400
H1165       H  0.31022806  0.95794470  0.80577185     0.08400
H1166       H  0.41724742  0.54951648  0.71593276     0.08300
H1167       H  0.42542713  0.56288946  0.75462518     0.08300
H1168       H  0.39875025  0.57226097  0.72951421     0.05100
C1169       C  0.16309493  0.52343048  0.51980366    -0.20700
C1170       C  0.16519063  0.99649398  0.49532062    -0.07200
C1171       C  0.13869079  0.97359860  0.00418192     0.13600
C1172       C  0.11125776  0.97739512  0.00441465    -0.20700
C1173       C  0.10998820  0.00469545  0.49693534    -0.07300
C1174       C  0.13558163  0.52671121  0.52179206     0.13600
C1175       C  0.13431618  0.54935369  0.54341688    -0.24100
H1176       H  0.18232912  0.53718464  0.53338737     0.14900
H1177       H  0.09169229  0.95856385  0.01043490     0.14900
C1178       C  0.13958991  0.94314905  0.01290186    -0.24000
H1179       H  0.15600190  0.56022937  0.55616741     0.05100
H1180       H  0.11764403  0.53832570  0.56071526     0.08400
H1181       H  0.11060415  0.55451965  0.95968987     0.08400
H1182       H  0.15232454  0.93901706  0.52676885     0.08300
H1183       H  0.14681987  0.93429819  0.99340375     0.08300
H1184       H  0.11740503  0.92691914  0.01876272     0.05100
C1185       C  0.35339989  0.51230988  0.51941258    -0.20700
C1186       C  0.32732602  0.49093975  0.00738744    -0.07200
C1187       C  0.33755639  0.96849545  0.01325092     0.13600
C1188       C  0.36684774  0.96948022  0.01200689    -0.20700
C1189       C  0.38634450  0.49163779  0.00457060    -0.07300
C1190       C  0.38238934  0.51221986  0.51835128     0.13600
C1191       C  0.40695319  0.53401242  0.53757853    -0.24100
H1192       H  0.34950056  0.52811845  0.53344378     0.14900
H1193       H  0.37223011  0.95017798  0.02000949     0.14900
C1194       C  0.31488349  0.94063092  0.02664574    -0.24000
H1195       H  0.39845348  0.54743352  0.55139434     0.05100
H1196       H  0.41946224  0.55301106  0.99062849     0.08400
H1197       H  0.41776336  0.52184858  0.55383346     0.08400
H1198       H  0.29742199  0.92967674  0.00877479     0.08300
H1199       H  0.29555491  0.93947084  0.46598965     0.08300
H1200       H  0.32502103  0.92413861  0.03542529     0.05100
C1201       C  0.48627023  0.52206647  0.86066277    -0.20700
C1202       C  0.50717599  0.51449340  0.84579467    -0.07200
C1203       C  0.01708837  0.48767144  0.86205271     0.13600
C1204       C  0.01341078  0.97941943  0.89051051    -0.20700
C1205       C  0.49435447  0.99343318  0.90561688    -0.07300
C1206       C  0.48345737  0.01492970  0.89135821     0.13600
C1207       C  0.46453171  0.02742431  0.90786510    -0.24100
H1208       H  0.47576675  0.53637656  0.84865826     0.14900
H1209       H  0.02419984  0.96561723  0.90304545     0.14900
C1210       C  0.03767348  0.47678188  0.84619823    -0.24000
H1211       H  0.45961686  0.04534037  0.89389350     0.05100
H1212       H  0.46822515  0.53326675  0.92759165     0.08400
H1213       H  0.44295722  0.00961742  0.91277366     0.08400
H1214       H  0.05830884  0.49567355  0.84073565     0.08300
H1215       H  0.03229107  0.96735376  0.82441631     0.08300
H1216       H  0.04433346  0.46030836  0.86087490     0.05100
C1217       C  0.98542655  0.52041383  0.61173501    -0.20700
C1218       C  0.50389242  0.51165895  0.59448988    -0.07200
C1219       C  0.51855408  0.99155586  0.61101278     0.13600
C1220       C  0.51219238  0.98360218  0.64181887    -0.20700
C1221       C  0.49327873  0.99404699  0.65660725    -0.07300
C1222       C  0.98004382  0.51168783  0.64263882     0.13600
C1223       C  0.96286410  0.52568691  0.65984132    -0.24100
H1224       H  0.97656025  0.53637813  0.60049066     0.14900
H1225       H  0.52166062  0.96867649  0.65431914     0.14900
C1226       C  0.53733081  0.97800923  0.59568808    -0.24000
H1227       H  0.94155360  0.50860598  0.66675380     0.05100
H1228       H  0.95742973  0.54311379  0.64551842     0.08400
H1229       H  0.97629218  0.53631545  0.68057003     0.08400
H1230       H  0.55835357  0.99559446  0.58880672     0.08300
H1231       H  0.52484641  0.96615186  0.57510291     0.08300
H1232       H  0.54333033  0.96167912  0.61127437     0.05100
C1233       C  0.46936837  0.84067985  0.73900771    -0.20700
C1234       C  0.49619993  0.83712558  0.74921358    -0.07200
C1235       C  0.02110084  0.85756579  0.75321752     0.13600
C1236       C  0.01823752  0.88563097  0.75100990    -0.20700
C1237       C  0.49130000  0.89428867  0.74534851    -0.07300
C1238       C  0.46649946  0.86866378  0.73685793     0.13600
C1239       C  0.43659984  0.87006153  0.72597953    -0.24100
H1240       H  0.45032215  0.82131895  0.73236270     0.14900
H1241       H  0.03768568  0.90528390  0.75581207     0.14900
C1242       C  0.05108473  0.85610124  0.76344107    -0.24000
H1243       H  0.41966529  0.84761254  0.72189549     0.05100
H1244       H  0.43844912  0.88316513  0.70389274     0.08400
H1245       H  0.42829068  0.88022895  0.74358945     0.08400
H1246       H  0.05990130  0.84766615  0.74481862     0.08300
H1247       H  0.04910284  0.84137315  0.78440713     0.08300
H1248       H  0.06765579  0.87834680  0.76910031     0.05100
C1249       C  0.48508957  0.62093243  0.73897528    -0.20700
C1250       C  0.50558180  0.61450653  0.76025714    -0.07200
C1251       C  0.01697444  0.62942117  0.78282219     0.13600
C1252       C  0.01447707  0.65756603  0.77966210    -0.20700
C1253       C  0.49922600  0.67076963  0.75786822    -0.07300
C1254       C  0.48149233  0.64861473  0.73771126     0.13600
C1255       C  0.45942963  0.65427969  0.71420626    -0.24100
H1256       H  0.47191736  0.60431081  0.72293196     0.14900
H1257       H  0.02599732  0.67421426  0.79634873     0.14900
C1258       C  0.03524355  0.62333252  0.81019080    -0.24000
H1259       H  0.44858263  0.63501926  0.69932478     0.05100
H1260       H  0.47086178  0.67404223  0.69923519     0.08400
H1261       H  0.44165595  0.65815657  0.72593235     0.08400
H1262       H  0.05521672  0.62015280  0.80252081     0.08300
H1263       H  0.02157487  0.60325761  0.82349907     0.08300
H1264       H  0.04325395  0.64214920  0.82596281     0.05100
C1265       C  0.01902900  0.76504398  0.89332290    -0.20700
C1266       C  0.49428420  0.74960317  0.91099001    -0.07200
C1267       C  0.47198386  0.72859975  0.89274020     0.13600
C1268       C  0.47381074  0.73055104  0.86069442    -0.20700
C1269       C  0.49745264  0.75262751  0.84626276    -0.07300
C1270       C  0.02114463  0.76630812  0.86134786     0.13600
C1271       C  0.04868113  0.78863214  0.84786088    -0.24100
H1272       H  0.03719868  0.77992267  0.90725098     0.14900
H1273       H  0.45678151  0.71436113  0.84680008     0.14900
C1274       C  0.44678405  0.70342458  0.90670929    -0.24000
H1275       H  0.06415114  0.80259482  0.86569403     0.05100
H1276       H  0.04242499  0.80375981  0.83083833     0.08400
H1277       H  0.06097901  0.77691598  0.83675363     0.08400
H1278       H  0.43226857  0.71235320  0.91819636     0.08300
H1279       H  0.45582369  0.69021040  0.92358178     0.08300
H1280       H  0.43264470  0.68810316  0.88907946     0.05100
C1281       C  0.02256121  0.76344500  0.64299984    -0.20700
C1282       C  0.49713508  0.75254226  0.66121616    -0.07200
C1283       C  0.47157753  0.74928559  0.64136489     0.13600
C1284       C  0.47347646  0.74876220  0.60952659    -0.20700
C1285       C  0.49990122  0.75088501  0.59648138    -0.07300
C1286       C  0.02435768  0.76421932  0.61097290     0.13600
C1287       C  0.05369777  0.78246639  0.59765776    -0.24100
H1288       H  0.04228709  0.77552737  0.65693998     0.14900
H1289       H  0.45390896  0.74669485  0.59463378     0.14900
C1290       C  0.44207630  0.74654484  0.65305886    -0.24000
H1291       H  0.07070520  0.79420395  0.61561517     0.05100
H1292       H  0.05073512  0.79966263  0.58093729     0.08400
H1293       H  0.06259296  0.76779133  0.58628294     0.08400
H1294       H  0.44474451  0.76619475  0.66651291     0.08300
H1295       H  0.43324370  0.72576179  0.66747753     0.08300
H1296       H  0.42513299  0.74542608  0.63404681     0.05100
C1297       C  0.47536942  0.87079337  0.97343847    -0.20700
C1298       C  0.49415984  0.89194218  0.99391784    -0.07200
C1299       C  0.01281964  0.87886986  0.01464689     0.13600
C1300       C  0.01260145  0.84965056  0.01474132    -0.20700
C1301       C  0.49354150  0.83297019  0.99610015    -0.07300
C1302       C  0.47472065  0.84146866  0.97433769     0.13600
C1303       C  0.45455424  0.82001211  0.95143485    -0.24100
H1304       H  0.46083452  0.87708634  0.95659848     0.14900
H1305       H  0.02638156  0.84251941  0.03180293     0.14900
C1306       C  0.02833910  0.89831022  0.54631705    -0.24000
H1307       H  0.44291226  0.83101622  0.93474544     0.05100
H1308       H  0.43732605  0.80158516  0.96351263     0.08400
H1309       H  0.46778434  0.81076267  0.93829050     0.08400
H1310       H  0.01192827  0.90452173  0.55800113     0.08300
H1311       H  0.04895239  0.91875200  0.02796258     0.08300
H1312       H  0.03832715  0.88613000  0.56347980     0.05100
C1313       C  0.48407134  0.65007959  0.98310934    -0.20700
C1314       C  0.49904683  0.66571009  0.50979850    -0.07200
C1315       C  0.00919682  0.65404303  0.53101750     0.13600
C1316       C  0.01017616  0.62536842  0.53118014    -0.20700
C1317       C  0.50112301  0.60806052  0.50745006    -0.07300
C1318       C  0.48561580  0.62169801  0.98162919     0.13600
C1319       C  0.47437786  0.60506528  0.95246197    -0.24100
H1320       H  0.47386525  0.65902319  0.96394447     0.14900
H1321       H  0.02100143  0.61764058  0.55073581     0.14900
C1322       C  0.02214879  0.67304014  0.55839885    -0.24000
H1323       H  0.46618065  0.61823498  0.93469655     0.05100
H1324       H  0.45565176  0.58398747  0.95705793     0.08400
H1325       H  0.49263867  0.60015452  0.94283237     0.08400
H1326       H  0.00469791  0.67941487  0.56785525     0.08300
H1327       H  0.04079203  0.69347258  0.55156313     0.08300
H1328       H  0.03084864  0.66103536  0.57696090     0.05100
O1329       O  0.52491494  0.26099573  0.04370434    -0.74800
O1330       O  0.52329736  0.25724363  0.45612289    -0.74800
O1331       O  0.52442334  0.29857043  0.49602916    -0.74900
O1332       O  0.52633431  0.22231123  0.00195277    -0.74900
O1333       O  0.97488064  0.19837291  0.00439597    -0.74900
O1334       O  0.97254847  0.27779699  0.49824124    -0.74800
O1335       O  0.97413936  0.23922174  0.45651188    -0.74800
O1336       O  0.97439183  0.23813741  0.04528976    -0.74900
Ni1337     Ni  0.52653742  0.25953386  0.49994926     1.25400
Ni1338     Ni  0.97152535  0.23683233  0.00133899     1.25400
C1339       C  0.99947951  0.24779618  0.06065616     0.87400
C1340       C  0.99887645  0.24886996  0.44341421     0.87300
C1341       C  0.49944680  0.30235759  0.49421709     0.87300
C1342       C  0.50215810  0.19951522  0.00127422     0.87500
O1343       O  0.97429150  0.27934176  0.24997003    -0.74800
O1344       O  0.97634419  0.20070191  0.25384057    -0.74800
O1345       O  0.97674950  0.23979976  0.29579172    -0.74900
O1346       O  0.97387723  0.24016701  0.20796682    -0.74900
O1347       O  0.52229671  0.26124679  0.20592580    -0.74900
O1348       O  0.52423831  0.25990606  0.29372642    -0.74800
O1349       O  0.52426449  0.22121355  0.25174693    -0.74800
O1350       O  0.52242192  0.30005480  0.24816762    -0.74900
Ni1351     Ni  0.97357953  0.23936353  0.25185117     1.25400
Ni1352     Ni  0.52503294  0.26126525  0.24991157     1.25400
C1353       C  0.99853891  0.30206846  0.24969098     0.87400
C1354       C  0.00145928  0.19725957  0.25558742     0.87300
C1355       C  0.00187857  0.24998720  0.31096170     0.87300
C1356       C  0.99809964  0.24893556  0.19399421     0.87500
O1357       O  0.91745427  0.46367901  0.48643586    -0.81300
O1358       O  0.55680114  0.48885570  0.49287251    -0.66000
O1359       O  0.97274134  0.47254432  0.00848298    -1.12600
C1360       C  0.00527167  0.07674703  0.00791775     1.05600
O1361       O  0.58026900  0.03273714  0.01395526    -0.79200
O1362       O  0.53822610  0.03078258  0.05204235    -0.66700
Ni1363     Ni  0.94707080  0.44648357  0.48234045     1.34900
C1364       C  0.00884586  0.01658409  0.06235797     0.84400
O1365       O  0.51122137  0.44126795  0.50827612    -0.79700
O1366       O  0.97164776  0.42369811  0.47618494    -0.90000
C1367       C  0.57989144  0.51374559  0.00159794     0.83900
O1368       O  0.96053154  0.47124800  0.44683098    -0.68200
O1369       O  0.53082876  0.07890609  0.01948975    -0.87500
C1370       C  0.98674928  0.47971418  0.43770827     0.84800
C1371       C  0.99330593  0.42041048  0.49238702     1.06300
H1372       H  0.52557590  0.02913670  0.47114891     0.38100
O1373       O  0.52232956  0.02295529  0.49246911    -1.10100
O1374       O  0.98772191  0.01912679  0.04432082    -0.66800
Ni1375     Ni  0.98055785  0.01490139  0.00014561     1.26300
O1376       O  0.50922140  0.47692904  0.45587624    -0.67000
O1377       O  0.98667808  0.05593525  0.99268522    -0.79300
C1378       C  0.91710446  0.98833858  0.99609062     0.84100
O1379       O  0.94026257  0.00846236  0.00670333    -0.66500
Ni1380     Ni  0.55304933  0.05319782  0.01573570     1.27400
Ni1381     Ni  0.51662642  0.48212189  0.49991816     1.26100
H1382       H  0.96933807  0.46692825  0.02981447     0.38700
O1383       O  0.91539586  0.46560300  0.23632526    -0.81300
O1384       O  0.55522431  0.48980896  0.24095569    -0.66000
O1385       O  0.97372346  0.47526746  0.25700907    -1.12600
C1386       C  0.01002415  0.07991494  0.26047788     1.05600
O1387       O  0.58073578  0.03179025  0.26351713    -0.79200
O1388       O  0.53872334  0.02785617  0.30335165    -0.66700
Ni1389     Ni  0.94351208  0.44671011  0.23262141     1.34900
C1390       C  0.01270384  0.01911932  0.31386341     0.84400
O1391       O  0.50902652  0.44259921  0.25677084    -0.79700
O1392       O  0.96676261  0.42256954  0.22693065    -0.90000
C1393       C  0.57900206  0.51104593  0.24833456     0.83900
O1394       O  0.95712664  0.46995810  0.19646486    -0.68200
O1395       O  0.53141449  0.07749243  0.27359432    -0.87500
C1396       C  0.98304817  0.47684199  0.18705395     0.84800
C1397       C  0.98766548  0.41845519  0.24362363     1.06300
H1398       H  0.52622298  0.03184385  0.22095581     0.38100
O1399       O  0.52289052  0.02514763  0.24214528    -1.10100
O1400       O  0.99149119  0.02237396  0.29658181    -0.66800
Ni1401     Ni  0.98270300  0.01795384  0.25275372     1.26300
O1402       O  0.50700841  0.47874603  0.20517347    -0.67000
O1403       O  0.99016309  0.05942375  0.24578208    -0.79300
C1404       C  0.91474247  0.48910058  0.24727781     0.84100
O1405       O  0.94296234  0.01298278  0.26082006    -0.66500
Ni1406     Ni  0.55349011  0.05197421  0.26774847     1.27400
Ni1407     Ni  0.51530719  0.48377524  0.24898318     1.26100
H1408       H  0.97058938  0.46933942  0.27838860     0.38700
O1409       O  0.71847460  0.01959975  0.49614308    -0.74800
O1410       O  0.79621413  0.01605549  0.49776332    -0.74800
O1411       O  0.75508216  0.01790265  0.45283050    -0.74900
O1412       O  0.75898810  0.01908572  0.04029028    -0.74900
O1413       O  0.73497490  0.47061794  0.04136577    -0.74900
O1414       O  0.73490397  0.46903397  0.45306092    -0.74800
O1415       O  0.77274479  0.46848235  0.99937097    -0.74800
O1416       O  0.69522691  0.47367253  0.99549829    -0.74900
Ni1417     Ni  0.75800855  0.01950285  0.49682859     1.25400
Ni1418     Ni  0.73322388  0.46919625  0.99755144     1.25400
C1419       C  0.69547707  0.99610904  0.99673448     0.87400
C1420       C  0.79911313  0.99067809  0.49852348     0.89500
C1421       C  0.74448312  0.99322916  0.43899766     0.87300
C1422       C  0.74998962  0.99414215  0.05563056     0.87500
O1423       O  0.73614012  0.47123428  0.29071402    -0.74800
O1424       O  0.73415407  0.47191110  0.20277595    -0.74800
O1425       O  0.77395269  0.46938657  0.24865682    -0.74900
O1426       O  0.69633675  0.47353101  0.24450593    -0.74900
O1427       O  0.71823963  0.02295132  0.24163853    -0.74900
O1428       O  0.79736207  0.02189794  0.25027440    -0.74800
O1429       O  0.75877371  0.02247647  0.20209755    -0.74800
O1430       O  0.75685877  0.02255039  0.28955368    -0.74900
Ni1431     Ni  0.73443276  0.46975710  0.24675397     1.25400
Ni1432     Ni  0.75844565  0.02422486  0.24577201     1.25400
C1433       C  0.74660461  0.49593921  0.30445530     0.87400
C1434       C  0.74378602  0.49684238  0.18753480     0.87300
C1435       C  0.79676598  0.49349594  0.24838690     0.87300
C1436       C  0.69323735  0.49881472  0.24316170     0.87500
C1437       C  0.75510878  0.02135966  0.38872623    -0.20700
C1438       C  0.74487486  0.49346089  0.40336234    -0.07200
C1439       C  0.72263733  0.47189132  0.38556272     0.13600
C1440       C  0.72402331  0.47333837  0.35347787    -0.20700
C1441       C  0.74697459  0.49567268  0.33850070    -0.07300
C1442       C  0.75638593  0.02384351  0.35660646     0.13600
C1443       C  0.76893898  0.05468670  0.34183520    -0.24100
H1444       H  0.76339072  0.04152646  0.40153159     0.14900
H1445       H  0.70673769  0.45706540  0.33989912     0.14900
C1446       C  0.69680436  0.44780093  0.39991706    -0.24000
H1447       H  0.77569584  0.07227572  0.35900886     0.05100
H1448       H  0.75188427  0.05885331  0.32565232     0.08400
H1449       H  0.78902313  0.05707139  0.32958349     0.08400
H1450       H  0.68482339  0.45793124  0.41370066     0.08300
H1451       H  0.70487201  0.43243281  0.41476520     0.08300
H1452       H  0.68062407  0.43423508  0.38231588     0.05100
C1453       C  0.77023202  0.01877971  0.10497213    -0.20700
C1454       C  0.74489668  0.49506412  0.08907702    -0.07200
C1455       C  0.75040958  0.47278421  0.10858454     0.13600
C1456       C  0.74957330  0.47397122  0.14048814    -0.20700
C1457       C  0.74366588  0.49690965  0.15359725    -0.07300
C1458       C  0.77079437  0.02092301  0.13695441     0.13600
C1459       C  0.79329899  0.04812783  0.15148060    -0.24100
H1460       H  0.78568571  0.03672240  0.09170042     0.14900
H1461       H  0.75402338  0.45702367  0.15538499     0.14900
C1462       C  0.75828555  0.44828832  0.09619974    -0.24000
H1463       H  0.80809907  0.06324122  0.13437713     0.05100
H1464       H  0.80753261  0.04136768  0.16928937     0.08400
H1465       H  0.78177670  0.06103819  0.16188277     0.08400
H1466       H  0.77786817  0.45807623  0.08195735     0.08300
H1467       H  0.73914780  0.43349624  0.08220435     0.08300
H1468       H  0.76396951  0.43422200  0.11492947     0.05100
C1469       C  0.61030109  0.48022950  0.25212173    -0.20700
C1470       C  0.60771454  0.50782078  0.24422344    -0.07200
C1471       C  0.63258200  0.53161611  0.23342068     0.13600
C1472       C  0.65984017  0.52760615  0.23257390    -0.20700
C1473       C  0.66299145  0.50041702  0.24208981    -0.07300
C1474       C  0.63746171  0.47606954  0.25118220     0.13600
C1475       C  0.63832748  0.44574116  0.26069171    -0.24100
H1476       H  0.59102668  0.46195094  0.25997430     0.14900
H1477       H  0.68240685  0.04750596  0.23360334     0.14900
C1478       C  0.63501682  0.06293428  0.23517966    -0.24000
H1479       H  0.61634232  0.42992301  0.26764438     0.05100
H1480       H  0.65447207  0.44752202  0.28062675     0.08400
H1481       H  0.64739920  0.93792035  0.22653302     0.08400
H1482       H  0.62597367  0.57249782  0.24122977     0.08300
H1483       H  0.61819163  0.06351392  0.21661621     0.08300
H1484       H  0.65684218  0.07940169  0.22863758     0.05100
C1485       C  0.86271772  0.47605695  0.22638539    -0.20700
C1486       C  0.88495792  0.49137223  0.24839395    -0.07200
C1487       C  0.88461935  0.02186913  0.24645431     0.13600
C1488       C  0.85551779  0.02177737  0.24670034    -0.20700
C1489       C  0.82663660  0.49190887  0.24843119    -0.07300
C1490       C  0.83376838  0.47614151  0.22608902     0.13600
C1491       C  0.81131920  0.46046908  0.20104359    -0.24100
H1492       H  0.86809119  0.46416011  0.20890898     0.14900
H1493       H  0.85125134  0.04168429  0.23875595     0.14900
C1494       C  0.90891006  0.04936721  0.23469891    -0.24000
H1495       H  0.82110559  0.45042247  0.18466148     0.05100
H1496       H  0.80304854  0.47665480  0.18788444     0.08400
H1497       H  0.79237415  0.44228296  0.21113492     0.08400
H1498       H  0.91882569  0.04391068  0.21487186     0.08300
H1499       H  0.92643292  0.05816517  0.25321763     0.08300
H1500       H  0.90037957  0.06731721  0.22695567     0.05100
C1501       C  0.66461304  0.02633290  0.00263854    -0.20700
C1502       C  0.66392892  0.50246115  0.99541966    -0.07200
C1503       C  0.63813130  0.47407113  0.50252869     0.13600
C1504       C  0.61126387  0.47859918  0.50468814    -0.20700
C1505       C  0.60942598  0.51101009  0.99964625    -0.07300
C1506       C  0.63785547  0.03096906  0.00424071     0.13600
C1507       C  0.63971499  0.06214237  0.01018235    -0.24100
H1508       H  0.68521919  0.04516267  0.00570099     0.14900
H1509       H  0.59181282  0.46012378  0.51175213     0.14900
C1510       C  0.63862235  0.44333919  0.51055997    -0.24000
H1511       H  0.66300131  0.07822867  0.01126981     0.05100
H1512       H  0.63058380  0.06242793  0.03266303     0.08400
H1513       H  0.61909118  0.06017028  0.46588069     0.08400
H1514       H  0.64522000  0.44459242  0.96927890     0.08300
H1515       H  0.64445277  0.43423416  0.49032941     0.08300
H1516       H  0.61661849  0.42751317  0.51747219     0.05100
C1517       C  0.85189882  0.00839660  0.01825648    -0.20700
C1518       C  0.82929705  0.98954643  0.49875672    -0.07200
C1519       C  0.83278296  0.46757493  0.48280035     0.13600
C1520       C  0.86170040  0.46732274  0.48333514    -0.20700
C1521       C  0.88822777  0.99004138  0.49948946    -0.07300
C1522       C  0.88075458  0.00770590  0.01890710     0.13600
C1523       C  0.90286419  0.02307754  0.04432127    -0.24100
H1524       H  0.84620932  0.02035332  0.03545405     0.14900
H1525       H  0.86530367  0.45006125  0.47134538     0.14900
C1526       C  0.80832701  0.44445152  0.46472406    -0.24000
H1527       H  0.89283428  0.03299747  0.06058259     0.05100
H1528       H  0.92291005  0.05045208  0.51650047     0.08400
H1529       H  0.91094421  0.00680763  0.05759641     0.08400
H1530       H  0.79729721  0.45554270  0.44743114     0.08300
H1531       H  0.78969583  0.43403616  0.97193240     0.08300
H1532       H  0.81698103  0.43023637  0.45224551     0.05100
C1533       C  0.98626422  0.01608179  0.36098744    -0.20700
C1534       C  0.00668921  0.00800934  0.34589956    -0.07200
C1535       C  0.52050960  0.99076784  0.36000723     0.13600
C1536       C  0.51453790  0.48250287  0.39046836    -0.20700
C1537       C  0.99174879  0.49012450  0.40528012    -0.07300
C1538       C  0.97763965  0.50853639  0.38964677     0.13600
C1539       C  0.95765805  0.52013232  0.40562574    -0.24100
H1540       H  0.97624998  0.03092457  0.34924542     0.14900
H1541       H  0.52519883  0.46825556  0.40231448     0.14900
C1542       C  0.54171895  0.98045495  0.34449429    -0.24000
H1543       H  0.95013884  0.53569476  0.39039418     0.05100
H1544       H  0.96956610  0.02798522  0.42814203     0.08400
H1545       H  0.93748622  0.50145531  0.41270423     0.08400
H1546       H  0.56220566  0.99967173  0.33934775     0.08300
H1547       H  0.53102604  0.47054095  0.32306112     0.08300
H1548       H  0.54858681  0.96419277  0.35929797     0.05100
C1549       C  0.48317169  0.01847600  0.10682242    -0.20700
C1550       C  0.00269120  0.00630086  0.09465874    -0.07200
C1551       C  0.01361219  0.48629695  0.10845802     0.13600
C1552       C  0.00733847  0.47717043  0.13909132    -0.20700
C1553       C  0.98798094  0.48645477  0.15452042    -0.07300
C1554       C  0.47592108  0.00875546  0.13717144     0.13600
C1555       C  0.45161298  0.01609056  0.15046952    -0.24100
H1556       H  0.47086502  0.03048121  0.09363542     0.14900
H1557       H  0.01737931  0.46242907  0.15100920     0.14900
C1558       C  0.03321948  0.47423188  0.09246231    -0.24000
H1559       H  0.43269083  0.99531115  0.15575313     0.05100
H1560       H  0.44286081  0.03000403  0.13417261     0.08400
H1561       H  0.46034158  0.02869183  0.17167211     0.08400
H1562       H  0.05405821  0.49253352  0.08634319     0.08300
H1563       H  0.02124422  0.46304111  0.07135847     0.08300
H1564       H  0.03956870  0.45766169  0.10731126     0.05100
C1565       C  0.96903510  0.33479542  0.24095650    -0.20700
C1566       C  0.99690036  0.33240366  0.24850094    -0.07200
C1567       C  0.52212932  0.36111114  0.24451639     0.13600
C1568       C  0.51888747  0.38900122  0.24382528    -0.20700
C1569       C  0.99000336  0.38853265  0.24554695    -0.07300
C1570       C  0.96507471  0.36219523  0.23989300     0.13600
C1571       C  0.93387427  0.36221987  0.23391199    -0.24100
H1572       H  0.94990005  0.31493801  0.23595496     0.14900
H1573       H  0.53838967  0.40917882  0.24223968     0.14900
C1574       C  0.55309932  0.36071118  0.24340242    -0.24000
H1575       H  0.91708594  0.33929829  0.23263801     0.05100
H1576       H  0.93192678  0.37396855  0.21163966     0.08400
H1577       H  0.92814804  0.37309813  0.25285661     0.08400
H1578       H  0.55453751  0.34897457  0.22289455     0.08300
H1579       H  0.55885698  0.34957325  0.26465291     0.08300
H1580       H  0.57010270  0.38353562  0.24182604     0.05100
C1581       C  0.98678226  0.11628033  0.23994148    -0.20700
C1582       C  0.00752598  0.10991769  0.26086973    -0.07200
C1583       C  0.52456145  0.13477337  0.27780131     0.13600
C1584       C  0.52137644  0.16264464  0.27500734    -0.20700
C1585       C  0.00241597  0.16687958  0.25729928    -0.07300
C1586       C  0.98397003  0.14431588  0.23792795     0.13600
C1587       C  0.96226891  0.15000733  0.21403241    -0.24100
H1588       H  0.97295791  0.09938779  0.22449222     0.14900
H1589       H  0.53472485  0.18011793  0.29013073     0.14900
C1590       C  0.54626396  0.13032152  0.30257548    -0.24000
H1591       H  0.95069703  0.13032200  0.19990153     0.05100
H1592       H  0.97439583  0.16888564  0.19841206     0.08400
H1593       H  0.94499200  0.15523299  0.22522070     0.08400
H1594       H  0.56461133  0.12627986  0.29212327     0.08300
H1595       H  0.53458113  0.11129503  0.31828304     0.08300
H1596       H  0.55657867  0.15021523  0.31671803     0.05100
C1597       C  0.52324777  0.26640371  0.39210942    -0.20700
C1598       C  0.99921105  0.24847325  0.40955197    -0.07200
C1599       C  0.97823296  0.22569619  0.39199937     0.13600
C1600       C  0.97999807  0.22684933  0.36001220    -0.20700
C1601       C  0.00237889  0.24981066  0.34497854    -0.07300
C1602       C  0.52497303  0.26775843  0.36009651     0.13600
C1603       C  0.55310521  0.28892565  0.34656712    -0.24100
H1604       H  0.54209934  0.28043743  0.40592237     0.14900
H1605       H  0.96384834  0.20944948  0.34661223     0.14900
C1606       C  0.95459576  0.19949586  0.40671274    -0.24000
H1607       H  0.56927768  0.30208085  0.36442462     0.05100
H1608       H  0.54782684  0.30491693  0.32987500     0.08400
H1609       H  0.56422243  0.27627086  0.33508582     0.08400
H1610       H  0.93864877  0.20703932  0.41751147     0.08300
H1611       H  0.96511591  0.18820994  0.42428257     0.08300
H1612       H  0.94167686  0.18282322  0.38966639     0.05100
C1613       C  0.52332004  0.25294037  0.14319093    -0.20700
C1614       C  0.99748838  0.24816915  0.15981527    -0.07200
C1615       C  0.97203994  0.23136947  0.14155614     0.13600
C1616       C  0.97371884  0.23168275  0.10955599    -0.20700
C1617       C  0.99999418  0.24811091  0.09487610    -0.07300
C1618       C  0.52549341  0.25335313  0.11130742     0.13600
C1619       C  0.55470687  0.25527185  0.09958904    -0.24100
H1620       H  0.54238220  0.25336731  0.15818218     0.14900
H1621       H  0.95416702  0.21874904  0.09587376     0.14900
C1622       C  0.94302242  0.21260885  0.15519750    -0.24000
H1623       H  0.57126752  0.25506620  0.11859339     0.05100
H1624       H  0.56439714  0.27638931  0.08589997     0.08400
H1625       H  0.55131659  0.23600037  0.08535135     0.08400
H1626       H  0.93357442  0.22701768  0.16622951     0.08300
H1627       H  0.94657613  0.19604646  0.17229748     0.08300
H1628       H  0.92617378  0.20009803  0.13749325     0.05100
C1629       C  0.96876367  0.36597443  0.49723478    -0.20700
C1630       C  0.99535613  0.39045760  0.49460445    -0.07200
C1631       C  0.51439777  0.38117876  0.51638968     0.13600
C1632       C  0.51579183  0.35264659  0.51505066    -0.20700
C1633       C  0.99510925  0.33137029  0.49743506    -0.07300
C1634       C  0.96810458  0.33663051  0.49869384     0.13600
C1635       C  0.93828629  0.31189148  0.50169885    -0.24100
H1636       H  0.94814986  0.36991082  0.49832625     0.14900
H1637       H  0.52928134  0.34528401  0.53227732     0.14900
C1638       C  0.55184157  0.41385844  0.99730926    -0.24000
H1639       H  0.92001773  0.32055500  0.50291236     0.05100
H1640       H  0.93860464  0.29825544  0.52309904     0.08400
H1641       H  0.93284213  0.29779605  0.48139144     0.08400
H1642       H  0.55491353  0.42659488  0.01834658     0.08300
H1643       H  0.54840394  0.42097474  0.53348861     0.08300
H1644       H  0.57086339  0.40612557  0.99712875     0.05100
C1645       C  0.98520583  0.14657166  0.48273495    -0.20700
C1646       C  0.00165983  0.16519781  0.00701983    -0.07200
C1647       C  0.51525156  0.15805062  0.02868514     0.13600
C1648       C  0.51628561  0.12937988  0.02851489    -0.20700
C1649       C  0.00270050  0.10672623  0.00722485    -0.07300
C1650       C  0.98563207  0.11761235  0.48198614     0.13600
C1651       C  0.96720961  0.09779148  0.45693257    -0.24100
H1652       H  0.97160109  0.15390027  0.46565786     0.14900
H1653       H  0.52521209  0.12061430  0.04879288     0.14900
C1654       C  0.52625286  0.17593565  0.05703603    -0.24000
H1655       H  0.95539507  0.10933414  0.44110834     0.05100
H1656       H  0.95006842  0.07785617  0.46711746     0.08400
H1657       H  0.98174505  0.09087425  0.44306895     0.08400
H1658       H  0.50805148  0.18177132  0.06553435     0.08300
H1659       H  0.54515639  0.19661881  0.05148055     0.08300
H1660       H  0.53408101  0.16342107  0.07580232     0.05100
O1661       O  0.52630014  0.26065064  0.54357501    -0.74800
O1662       O  0.52385542  0.26215846  0.95568126    -0.74800
O1663       O  0.52254778  0.30063952  0.99785023    -0.74900
O1664       O  0.52512461  0.21922752  0.50417193    -0.74900
O1665       O  0.97588789  0.19959945  0.50215727    -0.74900
O1666       O  0.97183573  0.27667790  0.99828465    -0.74800
O1667       O  0.97211723  0.23690390  0.95752571    -0.74800
O1668       O  0.97450440  0.23801312  0.54435292    -0.74900
Ni1669     Ni  0.52619518  0.26218608  0.99984248     1.25400
Ni1670     Ni  0.97251726  0.23799963  0.50026230     1.25400
C1671       C  0.99926315  0.24785525  0.56031691     0.87400
C1672       C  0.99644811  0.24688489  0.94369231     0.87300
C1673       C  0.49713003  0.30354804  0.99656842     0.87300
C1674       C  0.50051702  0.19700132  0.50488738     0.87500
O1675       O  0.97146116  0.27813864  0.74877077    -0.74800
O1676       O  0.97205160  0.19865297  0.75407002    -0.74800
O1677       O  0.97209862  0.23827386  0.79534622    -0.74900
O1678       O  0.97107790  0.23830744  0.70749270    -0.74900
O1679       O  0.52480795  0.26389415  0.70591751    -0.74900
O1680       O  0.52543257  0.26538147  0.79355099    -0.74800
O1681       O  0.52630757  0.22532377  0.75316162    -0.74800
O1682       O  0.52409309  0.30388717  0.74612826    -0.74900
Ni1683     Ni  0.96990114  0.23770726  0.75133673     1.25400
Ni1684     Ni  0.52690024  0.26525961  0.74978773     1.25400
C1685       C  0.99607841  0.30051788  0.74887746     0.87400
C1686       C  0.99703963  0.19486760  0.75626063     0.87300
C1687       C  0.99704178  0.24792425  0.81092128     0.87300
C1688       C  0.99553526  0.24726126  0.69390882     0.87500
O1689       O  0.91435470  0.46274354  0.98588878    -0.81300
O1690       O  0.55677963  0.49278598  0.99207034    -0.66000
O1691       O  0.97641172  0.47497491  0.50772641    -1.12600
C1692       C  0.00705883  0.07866567  0.50456772     1.05600
O1693       O  0.58081549  0.03211710  0.51444022    -0.79200
O1694       O  0.53803648  0.02764790  0.55357806    -0.66700
Ni1695     Ni  0.94280227  0.44353935  0.98425823     1.34900
C1696       C  0.01324800  0.02204752  0.56169076     0.84400
O1697       O  0.51178396  0.44437149  0.00776014    -0.79700
O1698       O  0.96619469  0.41898221  0.98086723    -0.90000
C1699       C  0.58011253  0.50970233  0.50203214     0.83900
O1700       O  0.95732304  0.46607039  0.94789059    -0.68200
O1701       O  0.52905676  0.07577955  0.52250093    -0.87500
C1702       C  0.98370472  0.47398912  0.93939641     0.84800
C1703       C  0.98847616  0.41624910  0.99645251     1.06300
H1704       H  0.52623762  0.03113553  0.96960791     0.38100
O1705       O  0.52277144  0.02513073  0.99093189    -1.10100
O1706       O  0.99102705  0.02250045  0.54410460    -0.66800
Ni1707     Ni  0.98195656  0.01600387  0.50046551     1.26300
O1708       O  0.50821490  0.47978633  0.95607205    -0.67000
O1709       O  0.98721121  0.05682588  0.49170862    -0.79300
C1710       C  0.91837844  0.98819934  0.49880675     0.84100
O1711       O  0.94155343  0.00916910  0.50831685    -0.66500
Ni1712     Ni  0.55235195  0.05116981  0.51754559     1.27400
Ni1713     Ni  0.51647624  0.48522698  0.99981719     1.26100
H1714       H  0.97324862  0.46854915  0.52894402     0.38700
O1715       O  0.91666722  0.46681887  0.73691033    -0.81300
O1716       O  0.55582288  0.49159679  0.74209393    -0.66000
O1717       O  0.97451881  0.47477635  0.75908509    -1.12600
C1718       C  0.00945820  0.07925955  0.75951601     1.05600
O1719       O  0.58240507  0.03455142  0.76358074    -0.79200
O1720       O  0.54088993  0.03170230  0.80386513    -0.66700
Ni1721     Ni  0.94479305  0.44783708  0.73272326     1.34900
C1722       C  0.01276354  0.01822441  0.81194231     0.84400
O1723       O  0.50870371  0.44477946  0.75716429    -0.79700
O1724       O  0.96797532  0.42368602  0.72624232    -0.90000
C1725       C  0.57976793  0.51217757  0.75057980     0.83900
O1726       O  0.95981232  0.47300783  0.69800369    -0.68200
O1727       O  0.53430255  0.08135809  0.77400016    -0.87500
C1728       C  0.98598230  0.47996849  0.68924380     0.84800
C1729       C  0.98846024  0.41859038  0.74284598     1.06300
H1730       H  0.52792052  0.03419342  0.72180245     0.38100
O1731       O  0.52458040  0.02817125  0.74314015    -1.10100
O1732       O  0.99166976  0.02172165  0.79462025    -0.66800
Ni1733     Ni  0.98307015  0.01770158  0.75073786     1.26300
O1734       O  0.50703194  0.48192305  0.70622496    -0.67000
O1735       O  0.99029040  0.05901478  0.74398837    -0.79300
C1736       C  0.91627793  0.48974520  0.74938956     0.84100
O1737       O  0.94316627  0.01235303  0.75876573    -0.66500
Ni1738     Ni  0.55571297  0.05526670  0.76803295     1.27400
Ni1739     Ni  0.51592805  0.48627818  0.75015236     1.26100
H1740       H  0.97078702  0.46793165  0.78018094     0.38700
O1741       O  0.71813407  0.02033951  0.99520892    -0.74800
O1742       O  0.79653291  0.01877764  0.99740865    -0.74800
O1743       O  0.75548503  0.01967309  0.95218757    -0.74900
O1744       O  0.75941839  0.01738838  0.54091645    -0.74900
O1745       O  0.73658465  0.46969658  0.54077774    -0.74900
O1746       O  0.73288547  0.47105032  0.95368150    -0.74800
O1747       O  0.77468650  0.46752619  0.49923482    -0.74800
O1748       O  0.69682930  0.47117786  0.49452033    -0.74900
Ni1749     Ni  0.75793693  0.02122890  0.99620194     1.25400
Ni1750     Ni  0.73507828  0.46762498  0.49698668     1.25400
C1751       C  0.69555216  0.99556237  0.49707224     0.87400
C1752       C  0.79980168  0.99364804  0.99734496     0.89500
C1753       C  0.74505545  0.99495472  0.93843862     0.87300
C1754       C  0.74970079  0.99244921  0.55616413     0.87500
O1755       O  0.73738373  0.47265819  0.79123567    -0.74800
O1756       O  0.73569330  0.47321400  0.70306698    -0.74800
O1757       O  0.77543160  0.47117160  0.74938624    -0.74900
O1758       O  0.69733690  0.47431338  0.74501611    -0.74900
O1759       O  0.71869803  0.02315092  0.74178935    -0.74900
O1760       O  0.79735858  0.02063454  0.74962524    -0.74800
O1761       O  0.75855776  0.02145885  0.70183344    -0.74800
O1762       O  0.75779924  0.02251455  0.78939635    -0.74900
Ni1763     Ni  0.73576985  0.47109091  0.74719713     1.25400
Ni1764     Ni  0.75874439  0.02370289  0.74551939     1.25400
C1765       C  0.74757827  0.49742870  0.80491851     0.87400
C1766       C  0.74544349  0.49808230  0.68763357     0.87300
C1767       C  0.79837625  0.49513684  0.74947974     0.87300
C1768       C  0.69410528  0.49953863  0.74406527     0.87500
C1769       C  0.76584365  0.01967634  0.88921569    -0.20700
C1770       C  0.74388930  0.49545656  0.90400370    -0.07200
C1771       C  0.72442386  0.47175989  0.88624050     0.13600
C1772       C  0.72649177  0.47315107  0.85422014    -0.20700
C1773       C  0.74744018  0.49739878  0.83907736    -0.07300
C1774       C  0.76768153  0.02140245  0.85715700     0.13600
C1775       C  0.79149204  0.04785477  0.84299909    -0.24100
H1776       H  0.78122245  0.03750536  0.90270361     0.14900
H1777       H  0.71124306  0.45517662  0.84080873     0.14900
C1778       C  0.70084096  0.44511376  0.90041161    -0.24000
H1779       H  0.80601291  0.06284044  0.86068378     0.05100
H1780       H  0.78118225  0.06120720  0.82780005     0.08400
H1781       H  0.80583686  0.04016715  0.82967002     0.08400
H1782       H  0.68619666  0.45253254  0.91352997     0.08300
H1783       H  0.71136223  0.43204919  0.91576476     0.08300
H1784       H  0.68656994  0.42990197  0.88277139     0.05100
C1785       C  0.77219145  0.01521821  0.60578642    -0.20700
C1786       C  0.74624089  0.49475419  0.58854032    -0.07200
C1787       C  0.74473955  0.46973670  0.60826151     0.13600
C1788       C  0.74435330  0.47174600  0.64015813    -0.20700
C1789       C  0.74574258  0.49804072  0.65341982    -0.07300
C1790       C  0.77289980  0.01716941  0.63779955     0.13600
C1791       C  0.79848197  0.04139251  0.65321416    -0.24100
H1792       H  0.78936669  0.03168790  0.59283058     0.14900
H1793       H  0.74334003  0.45251813  0.65495311     0.14900
C1794       C  0.74430084  0.44092055  0.59630607    -0.24000
H1795       H  0.81514996  0.05454056  0.63664556     0.05100
H1796       H  0.80996330  0.03139164  0.67116029     0.08400
H1797       H  0.79028277  0.05708802  0.66369688     0.08400
H1798       H  0.76398571  0.44520869  0.58262022     0.08300
H1799       H  0.72353291  0.43042073  0.58200389     0.08300
H1800       H  0.74501525  0.42460536  0.61520996     0.05100
C1801       C  0.61178738  0.48174159  0.75719634    -0.20700
C1802       C  0.60849561  0.50857801  0.74690493    -0.07200
C1803       C  0.63288854  0.53167643  0.73430689     0.13600
C1804       C  0.66002184  0.52750605  0.73282701    -0.20700
C1805       C  0.66382553  0.50106980  0.74409180    -0.07300
C1806       C  0.63913750  0.47773056  0.75636499     0.13600
C1807       C  0.64142402  0.44897703  0.76981140    -0.24100
H1808       H  0.59304351  0.46414139  0.76693428     0.14900
H1809       H  0.68236100  0.04751238  0.73032758     0.14900
C1810       C  0.63492385  0.06325720  0.73110280    -0.24000
H1811       H  0.62034796  0.43414059  0.77969614     0.05100
H1812       H  0.65917441  0.45372170  0.78855130     0.08400
H1813       H  0.64725706  0.93701810  0.73409242     0.08400
H1814       H  0.62637905  0.57283601  0.74071694     0.08300
H1815       H  0.61731089  0.06224540  0.71286965     0.08300
H1816       H  0.65634604  0.07910926  0.72284387     0.05100
C1817       C  0.86305448  0.46678920  0.75920693    -0.20700
C1818       C  0.88703441  0.49251647  0.75143289    -0.07200
C1819       C  0.88478849  0.02140833  0.74850904     0.13600
C1820       C  0.85556053  0.02096488  0.74880922    -0.20700
C1821       C  0.82873567  0.49354096  0.75115762    -0.07300
C1822       C  0.83409243  0.46682762  0.75938678     0.13600
C1823       C  0.80985281  0.43813107  0.76875392    -0.24100
H1824       H  0.86706510  0.44631948  0.76508914     0.14900
H1825       H  0.85158373  0.04153215  0.74368116     0.14900
C1826       C  0.90946435  0.05039677  0.74119967    -0.24000
H1827       H  0.81875972  0.42035603  0.77611351     0.05100
H1828       H  0.79362099  0.42973003  0.74906918     0.08400
H1829       H  0.79850950  0.44179155  0.78843175     0.08400
H1830       H  0.92056514  0.04821376  0.72064029     0.08300
H1831       H  0.92591584  0.05649896  0.76108419     0.08300
H1832       H  0.90108936  0.06894391  0.73632763     0.05100
C1833       C  0.66349887  0.02601593  0.49178309    -0.20700
C1834       C  0.66374704  0.49845032  0.49368819    -0.07200
C1835       C  0.63834039  0.48501521  0.97818553     0.13600
C1836       C  0.61150750  0.48956804  0.98045867    -0.20700
C1837       C  0.60912237  0.50668495  0.49874705    -0.07300
C1838       C  0.63649016  0.03044736  0.49273111     0.13600
C1839       C  0.63583778  0.06117099  0.48505937    -0.24100
H1840       H  0.68320477  0.04502341  0.48647269     0.14900
H1841       H  0.59207456  0.47642193  0.96679625     0.14900
C1842       C  0.63941416  0.46251241  0.95641527    -0.24000
H1843       H  0.65769406  0.07700589  0.47780347     0.05100
H1844       H  0.63035012  0.07027802  0.50546328     0.08400
H1845       H  0.62739407  0.07023240  0.99140864     0.08400
H1846       H  0.65492729  0.44426916  0.53015648     0.08300
H1847       H  0.65623471  0.47372745  0.93933890     0.08300
H1848       H  0.61765026  0.45188782  0.94371032     0.05100
C1849       C  0.85288802  0.01156104  0.51409893    -0.20700
C1850       C  0.82987971  0.99301578  0.99634057    -0.07200
C1851       C  0.83121757  0.47066618  0.97952652     0.13600
C1852       C  0.86001707  0.47014311  0.97953729    -0.20700
C1853       C  0.88777004  0.99163586  0.99650356    -0.07300
C1854       C  0.88222271  0.01209738  0.51486602     0.13600
C1855       C  0.90615825  0.03611861  0.53237503    -0.24100
H1856       H  0.84825296  0.02835684  0.52589012     0.14900
H1857       H  0.86386917  0.45471896  0.96495961     0.14900
C1858       C  0.80712590  0.45068577  0.95834787    -0.24000
H1859       H  0.89703290  0.05074956  0.54354566     0.05100
H1860       H  0.92192511  0.04141660  0.03465524     0.08400
H1861       H  0.91701667  0.02590807  0.55072623     0.08400
H1862       H  0.79707717  0.46423446  0.94303335     0.08300
H1863       H  0.79175935  0.42950801  0.48039905     0.08300
H1864       H  0.81591956  0.43825177  0.94358284     0.05100
C1865       C  0.98519325  0.01448006  0.85829649    -0.20700
C1866       C  0.00664657  0.00729161  0.84402059    -0.07200
C1867       C  0.51985392  0.99341829  0.85946019     0.13600
C1868       C  0.51366586  0.48568218  0.89167973    -0.20700
C1869       C  0.98978055  0.48533164  0.90752057    -0.07300
C1870       C  0.97642012  0.50460199  0.89243435     0.13600
C1871       C  0.95544999  0.51510451  0.90816513    -0.24100
H1872       H  0.97439278  0.02832583  0.84587286     0.14900
H1873       H  0.52418408  0.47139390  0.90370587     0.14900
C1874       C  0.53773082  0.97991018  0.84265749    -0.24000
H1875       H  0.94888827  0.53170217  0.89359465     0.05100
H1876       H  0.96521249  0.02590152  0.92405377     0.08400
H1877       H  0.93477778  0.49605144  0.91314610     0.08400
H1878       H  0.55942449  0.99712742  0.83703031     0.08300
H1879       H  0.53200762  0.47450905  0.82495249     0.08300
H1880       H  0.54244060  0.96193015  0.85672239     0.05100
C1881       C  0.48715925  0.02135872  0.60947674    -0.20700
C1882       C  0.00837848  0.01292456  0.59442653    -0.07200
C1883       C  0.01469118  0.48880704  0.60986810     0.13600
C1884       C  0.00919886  0.47997205  0.64070717    -0.20700
C1885       C  0.99178619  0.49088599  0.65716781    -0.07300
C1886       C  0.48056599  0.01321738  0.64018136     0.13600
C1887       C  0.46094377  0.02611027  0.65497466    -0.24100
H1888       H  0.47767079  0.03622786  0.59688013     0.14900
H1889       H  0.01808766  0.46400126  0.65189311     0.14900
C1890       C  0.03235009  0.47526125  0.59278278    -0.24000
H1891       H  0.44008197  0.00811378  0.66159255     0.05100
H1892       H  0.45456753  0.04201989  0.63910349     0.08400
H1893       H  0.47288097  0.03826961  0.67560325     0.08400
H1894       H  0.05350592  0.49267972  0.58595973     0.08300
H1895       H  0.01916246  0.46451414  0.57199201     0.08300
H1896       H  0.03808436  0.45803474  0.60714588     0.05100
C1897       C  0.96787986  0.33452774  0.73963529    -0.20700
C1898       C  0.99544420  0.33134001  0.74674501    -0.07200
C1899       C  0.52264828  0.36405406  0.75005083     0.13600
C1900       C  0.51895295  0.39170286  0.74942683    -0.20700
C1901       C  0.99029251  0.38840332  0.74335521    -0.07300
C1902       C  0.96487981  0.36242708  0.73783944     0.13600
C1903       C  0.93415718  0.36342977  0.73088215    -0.24100
H1904       H  0.94824214  0.31492027  0.73541253     0.14900
H1905       H  0.53790648  0.41136131  0.75553908     0.14900
C1906       C  0.55298341  0.36315639  0.75963652    -0.24000
H1907       H  0.91685545  0.34079729  0.72938003     0.05100
H1908       H  0.93322502  0.37527172  0.70841047     0.08400
H1909       H  0.92836139  0.37476552  0.74936925     0.08400
H1910       H  0.56190582  0.35555035  0.74046561     0.08300
H1911       H  0.55155006  0.34800324  0.78016302     0.08300
H1912       H  0.56919924  0.38543623  0.76571813     0.05100
C1913       C  0.98214153  0.11327401  0.74309741    -0.20700
C1914       C  0.00585937  0.10869830  0.76079441    -0.07200
C1915       C  0.53252303  0.14130585  0.77227576     0.13600
C1916       C  0.52851583  0.16877438  0.77032054    -0.20700
C1917       C  0.99813291  0.16447437  0.75860499    -0.07300
C1918       C  0.97781175  0.14058268  0.74202074     0.13600
C1919       C  0.95217030  0.14388882  0.72217975    -0.24100
H1920       H  0.96701752  0.09551157  0.72942832     0.14900
H1921       H  0.54510873  0.18768837  0.78135730     0.14900
C1922       C  0.56027156  0.13980839  0.78949019    -0.24000
H1923       H  0.93939825  0.12331526  0.70977476     0.05100
H1924       H  0.96058238  0.16237419  0.70479545     0.08400
H1925       H  0.93654475  0.14847003  0.73666002     0.08400
H1926       H  0.57372505  0.13327333  0.77386404     0.08300
H1927       H  0.55421714  0.12364414  0.80935134     0.08300
H1928       H  0.57459413  0.16163887  0.79872575     0.05100
C1929       C  0.52162220  0.27573439  0.89106290    -0.20700
C1930       C  0.99576281  0.24670218  0.90969491    -0.07200
C1931       C  0.97556695  0.22297855  0.89263865     0.13600
C1932       C  0.97644207  0.22418887  0.86048107    -0.20700
C1933       C  0.99728300  0.24815711  0.84488415    -0.07300
C1934       C  0.52289463  0.27771097  0.85889713     0.13600
C1935       C  0.54739444  0.30333991  0.84453356    -0.24100
H1936       H  0.53876903  0.29202024  0.90475417     0.14900
H1937       H  0.96108445  0.20597527  0.84743022     0.14900
C1938       C  0.95390869  0.19573210  0.90813262    -0.24000
H1939       H  0.56149150  0.31892107  0.86197633     0.05100
H1940       H  0.53757460  0.31611645  0.82793314     0.08400
H1941       H  0.56213857  0.29499196  0.83267548     0.08400
H1942       H  0.93749242  0.20182262  0.91988588     0.08300
H1943       H  0.96610760  0.18554517  0.92508828     0.08300
H1944       H  0.94129227  0.17862445  0.89138292     0.05100
C1945       C  0.52584046  0.25463727  0.64313280    -0.20700
C1946       C  0.99551652  0.24696946  0.65961900    -0.07200
C1947       C  0.96928283  0.23915938  0.63991012     0.13600
C1948       C  0.97152813  0.23950046  0.60797833    -0.20700
C1949       C  0.99909490  0.24759131  0.59461037    -0.07300
C1950       C  0.52777008  0.25466198  0.61123876     0.13600
C1951       C  0.55651017  0.25527541  0.59938497    -0.24100
H1952       H  0.54476378  0.25463189  0.65812953     0.14900
H1953       H  0.95132222  0.23356880  0.59327776     0.14900
C1954       C  0.93867166  0.23065943  0.65180968    -0.24000
H1955       H  0.57307410  0.25491950  0.61833616     0.05100
H1956       H  0.56662484  0.27598001  0.58520500     0.08400
H1957       H  0.55235996  0.23556254  0.58555800     0.08400
H1958       H  0.93731237  0.24929763  0.66449429     0.08300
H1959       H  0.93372735  0.21029561  0.66701354     0.08300
H1960       H  0.92103561  0.22573340  0.63294223     0.05100
C1961       C  0.97500053  0.36625830  0.97542599    -0.20700
C1962       C  0.99235409  0.38698175  0.99700074    -0.07200
C1963       C  0.52242982  0.38826132  0.99693035     0.13600
C1964       C  0.52224733  0.35896063  0.99735878    -0.20700
C1965       C  0.99497233  0.32942420  0.99686506    -0.07300
C1966       C  0.97605459  0.33769249  0.97507156     0.13600
C1967       C  0.95765715  0.31688467  0.95071937    -0.24100
H1968       H  0.96034477  0.37233639  0.95855838     0.14900
H1969       H  0.54331517  0.35564133  0.99861413     0.14900
C1970       C  0.53139670  0.40031202  0.54252501    -0.24000
H1971       H  0.94556934  0.32774494  0.93440340     0.05100
H1972       H  0.94081272  0.29710029  0.96145770     0.08400
H1973       H  0.97232445  0.30966908  0.93734050     0.08400
H1974       H  0.51583510  0.40594798  0.55617588     0.08300
H1975       H  0.55253242  0.42869313  0.97665349     0.08300
H1976       H  0.54322368  0.38875461  0.55831914     0.05100
C1977       C  0.97855425  0.14242160  0.99215715    -0.20700
C1978       C  0.00244036  0.16649054  0.50485464    -0.07200
C1979       C  0.52086777  0.15835690  0.52824339     0.13600
C1980       C  0.52142291  0.12948907  0.52816318    -0.20700
C1981       C  0.00374761  0.10825970  0.50426425    -0.07300
C1982       C  0.97884843  0.11344387  0.99160359     0.13600
C1983       C  0.95368605  0.09072833  0.97391330    -0.24100
H1984       H  0.96040849  0.14754772  0.98015442     0.14900
H1985       H  0.53710573  0.12375213  0.54393862     0.14900
C1986       C  0.54108671  0.17976945  0.55110034    -0.24000
H1987       H  0.93713534  0.10015348  0.96353025     0.05100
H1988       H  0.94176120  0.07169377  0.98942442     0.08400
H1989       H  0.96248384  0.08282620  0.95485322     0.08400
H1990       H  0.52751530  0.18746040  0.56547051     0.08300
H1991       H  0.55726663  0.19912852  0.53904858     0.08300
H1992       H  0.55403033  0.16920788  0.56665136     0.05100
O1993       O  0.52065941  0.76072312  0.04792274    -0.74800
O1994       O  0.52212643  0.75684233  0.46104530    -0.74800
O1995       O  0.52271889  0.79741641  0.50148113    -0.74900
O1996       O  0.52079338  0.72031926  0.00796076    -0.74900
O1997       O  0.96976456  0.69679062  0.00163441    -0.74900
O1998       O  0.97362826  0.77970858  0.49570925    -0.74800
O1999       O  0.97217147  0.73959938  0.45447896    -0.74800
O2000       O  0.96972055  0.73662868  0.04278351    -0.74900
Ni2001     Ni  0.52480865  0.75846808  0.50494899     1.25400
Ni2002     Ni  0.96770472  0.73585389  0.99877639     1.25400
C2003       C  0.99458154  0.74625257  0.05853345     0.87400
C2004       C  0.99674842  0.74792495  0.44112623     0.87300
C2005       C  0.49775158  0.80119684  0.49891620     0.87300
C2006       C  0.49624690  0.69802377  0.00740893     0.87500
O2007       O  0.97045443  0.77845701  0.24653154    -0.74800
O2008       O  0.97136280  0.69926744  0.25176815    -0.74800
O2009       O  0.97245708  0.73918834  0.29310767    -0.74900
O2010       O  0.96914996  0.73818109  0.20522378    -0.74900
O2011       O  0.52013823  0.75995157  0.21035981    -0.74900
O2012       O  0.52278650  0.75946614  0.29820108    -0.74800
O2013       O  0.52155196  0.72013975  0.25628847    -0.74800
O2014       O  0.52164718  0.79946886  0.25216774    -0.74900
Ni2015     Ni  0.96908956  0.73815169  0.24913163     1.25400
Ni2016     Ni  0.52327217  0.76038162  0.25432320     1.25400
C2017       C  0.99501521  0.80087215  0.24656184     0.87400
C2018       C  0.99622759  0.69538042  0.25257891     0.87300
C2019       C  0.99771990  0.74859558  0.30815903     0.87300
C2020       C  0.99335396  0.74722939  0.19117505     0.87500
O2021       O  0.91958341  0.96493477  0.48786599    -0.81300
O2022       O  0.55814665  0.98863267  0.49241833    -0.66000
O2023       O  0.97584638  0.97375661  0.00700285    -1.12600
C2024       C  0.00112998  0.57528471  0.00562734     1.05600
O2025       O  0.57869324  0.53684963  0.01285110    -0.79200
O2026       O  0.53698384  0.53255246  0.05291885    -0.66700
Ni2027     Ni  0.94776642  0.94605089  0.48482146     1.34900
C2028       C  0.00649781  0.51665233  0.06112600     0.84400
O2029       O  0.51253380  0.94119529  0.50811729    -0.79700
O2030       O  0.97102358  0.92166051  0.47981827    -0.90000
C2031       C  0.58109390  0.00996987  0.00163818     0.83900
O2032       O  0.96088137  0.96872719  0.44808538    -0.68200
O2033       O  0.52620417  0.57904731  0.02124047    -0.87500
C2034       C  0.98688651  0.97623792  0.43872556     0.84800
C2035       C  0.99348421  0.91891697  0.49493811     1.06300
H2036       H  0.52446989  0.52916396  0.47089636     0.38100
O2037       O  0.52101587  0.52305739  0.49219937    -1.10100
O2038       O  0.98514392  0.51919394  0.04345734    -0.66800
Ni2039     Ni  0.97715892  0.51331953  0.99966361     1.26300
O2040       O  0.50995334  0.97679449  0.45585301    -0.67000
O2041       O  0.98279612  0.55408071  0.99066719    -0.79300
C2042       C  0.91352608  0.48624530  0.99678183     0.84100
O2043       O  0.93682689  0.50686534  0.00641495    -0.66500
Ni2044     Ni  0.54991385  0.55519373  0.01611990     1.27400
Ni2045     Ni  0.51799223  0.98198595  0.49986523     1.26100
H2046       H  0.97251717  0.96737750  0.02821844     0.38700
O2047       O  0.91825409  0.96890362  0.24042742    -0.81300
O2048       O  0.55701282  0.98967680  0.23936348    -0.66000
O2049       O  0.97653484  0.97638165  0.25954473    -1.12600
C2050       C  0.00505598  0.57839206  0.25543311     1.05600
O2051       O  0.57930098  0.53453193  0.26012235    -0.79200
O2052       O  0.53783738  0.52852274  0.30209459    -0.66700
Ni2053     Ni  0.94523348  0.94898239  0.23497508     1.34900
C2054       C  0.00842486  0.51889492  0.31077594     0.84400
O2055       O  0.51051628  0.94258749  0.25533191    -0.79700
O2056       O  0.96688132  0.92354141  0.22789846    -0.90000
C2057       C  0.58073558  0.00957882  0.24936563     0.83900
O2058       O  0.95903788  0.97280534  0.19898089    -0.68200
O2059       O  0.52813868  0.57696513  0.27371451    -0.87500
C2060       C  0.98474931  0.97899105  0.18917509     0.84800
C2061       C  0.98801668  0.91872277  0.24355740     1.06300
H2062       H  0.52307425  0.53112207  0.22031253     0.38100
O2063       O  0.52026371  0.52499033  0.24169898    -1.10100
O2064       O  0.98694975  0.52149636  0.29328493    -0.66800
Ni2065     Ni  0.97862337  0.51634673  0.24924341     1.26300
O2066       O  0.50808561  0.97991730  0.20424193    -0.67000
O2067       O  0.98517837  0.55753596  0.24122049    -0.79300
C2068       C  0.91899506  0.99256892  0.25220994     0.84100
O2069       O  0.93813631  0.51015631  0.25630409    -0.66500
Ni2070     Ni  0.55106876  0.55294255  0.26618729     1.27400
Ni2071     Ni  0.51730038  0.98384327  0.24822203     1.26100
H2072       H  0.97356986  0.97015652  0.28089110     0.38700
O2073       O  0.71669561  0.52060191  0.49229717    -0.74800
O2074       O  0.79477838  0.51705159  0.49717378    -0.74800
O2075       O  0.75501929  0.51853566  0.45074787    -0.74900
O2076       O  0.75534353  0.52014443  0.03989927    -0.74900
O2077       O  0.74069612  0.96955355  0.04179573    -0.74900
O2078       O  0.73511793  0.96853031  0.45455836    -0.74800
O2079       O  0.77741932  0.96912784  0.99785680    -0.74800
O2080       O  0.69879767  0.97089935  0.99780963    -0.74900
Ni2081     Ni  0.75643891  0.52061258  0.49464421     1.25400
Ni2082     Ni  0.73745268  0.96817467  0.99791115     1.25400
C2083       C  0.69315100  0.49946335  0.99433232     0.87400
C2084       C  0.79754003  0.49156632  0.49830071     0.89500
C2085       C  0.74475433  0.49363410  0.43736547     0.87300
C2086       C  0.74526677  0.49523099  0.05514645     0.87500
O2087       O  0.73821966  0.97313577  0.29163093    -0.74800
O2088       O  0.73998224  0.97297609  0.20404597    -0.74800
O2089       O  0.77850764  0.97243784  0.25217746    -0.74900
O2090       O  0.69951951  0.97351802  0.24368481    -0.74900
O2091       O  0.71610805  0.52297939  0.24300487    -0.74900
O2092       O  0.79409342  0.51900656  0.24750365    -0.74800
O2093       O  0.75413727  0.52146072  0.20132496    -0.74800
O2094       O  0.75615876  0.52075722  0.28909722    -0.74900
Ni2095     Ni  0.73841633  0.97126752  0.24792002     1.25400
Ni2096     Ni  0.75583720  0.52282093  0.24518217     1.25400
C2097       C  0.74716389  0.99792103  0.30520872     0.87400
C2098       C  0.74993608  0.99774895  0.18854530     0.87300
C2099       C  0.80102448  0.99680493  0.25281410     0.87300
C2100       C  0.69569602  0.99847987  0.24180824     0.87500
C2101       C  0.76796902  0.51567408  0.38839381    -0.20700
C2102       C  0.74368542  0.99363415  0.40464855    -0.07200
C2103       C  0.73247993  0.96750448  0.38733422     0.13600
C2104       C  0.73409777  0.96996390  0.35525155    -0.20700
C2105       C  0.74608016  0.99765688  0.33938537    -0.07300
C2106       C  0.76949470  0.51695990  0.35631802     0.13600
C2107       C  0.79583606  0.54040918  0.34199801    -0.24100
H2108       H  0.78525994  0.53194177  0.40197161     0.14900
H2109       H  0.72577525  0.94979576  0.34244562     0.14900
C2110       C  0.71850121  0.93676620  0.40195132    -0.24000
H2111       H  0.81221743  0.55368672  0.35962820     0.05100
H2112       H  0.78846360  0.55615346  0.32697770     0.08400
H2113       H  0.80737686  0.52965516  0.32839728     0.08400
H2114       H  0.69904263  0.93564800  0.41463356     0.08300
H2115       H  0.73508273  0.93129065  0.41771107     0.08300
H2116       H  0.71038112  0.91930338  0.38463128     0.05100
C2117       C  0.73871894  0.51787798  0.10216623    -0.20700
C2118       C  0.75016148  0.99402202  0.08974667    -0.07200
C2119       C  0.73002427  0.97062887  0.10730002     0.13600
C2120       C  0.73082418  0.97261226  0.13930500    -0.20700
C2121       C  0.75074464  0.99745995  0.15452885    -0.07300
C2122       C  0.73784853  0.51903564  0.13410912     0.13600
C2123       C  0.72955994  0.54324042  0.14657524    -0.24100
H2124       H  0.73408330  0.53470377  0.08722770     0.14900
H2125       H  0.71526360  0.95471139  0.15252114     0.14900
C2126       C  0.70677571  0.94394158  0.09265500    -0.24000
H2127       H  0.72373962  0.55724673  0.12787652     0.05100
H2128       H  0.74851903  0.55814212  0.16068466     0.08400
H2129       H  0.70995225  0.53316194  0.16074634     0.08400
H2130       H  0.71761703  0.93061032  0.08187700     0.08300
H2131       H  0.69277423  0.95136087  0.07512222     0.08300
H2132       H  0.69179164  0.92902832  0.10974011     0.05100
C2133       C  0.61152141  0.97824092  0.24660936    -0.20700
C2134       C  0.60970561  0.00670106  0.24500436    -0.07200
C2135       C  0.63562048  0.03183951  0.23951627     0.13600
C2136       C  0.66273745  0.02795689  0.23739512    -0.20700
C2137       C  0.66516507  0.99971414  0.24082419    -0.07300
C2138       C  0.63880723  0.97430537  0.24474764     0.13600
C2139       C  0.63884566  0.94297876  0.24753178    -0.24100
H2140       H  0.59154778  0.95895403  0.25031108     0.14900
H2141       H  0.67891947  0.54604254  0.22464308     0.14900
C2142       C  0.63045572  0.56103372  0.22205398    -0.24000
H2143       H  0.61614161  0.92618611  0.25012487     0.05100
H2144       H  0.65278705  0.94037939  0.26810073     0.08400
H2145       H  0.64455683  0.43605123  0.24114017     0.08400
H2146       H  0.62977877  0.07020868  0.25686987     0.08300
H2147       H  0.61236851  0.55729643  0.20376300     0.08300
H2148       H  0.65144859  0.57617795  0.21225280     0.05100
C2149       C  0.86679810  0.97051512  0.26606874    -0.20700
C2150       C  0.89014684  0.99569147  0.25576454    -0.07200
C2151       C  0.87769588  0.50714877  0.27084497     0.13600
C2152       C  0.84860988  0.50732118  0.27041679    -0.20700
C2153       C  0.83168673  0.99607515  0.25569704    -0.07300
C2154       C  0.83774279  0.97026998  0.26634253     0.13600
C2155       C  0.81409518  0.94227252  0.27822010    -0.24100
H2156       H  0.87129507  0.95057743  0.27345482     0.14900
H2157       H  0.84286778  0.51935477  0.28749152     0.14900
C2158       C  0.90003041  0.52312697  0.29575893    -0.24000
H2159       H  0.82358024  0.92544601  0.28758732     0.05100
H2160       H  0.79763548  0.93181500  0.25933996     0.08400
H2161       H  0.80287129  0.94759536  0.29704239     0.08400
H2162       H  0.91857089  0.54168555  0.28552433     0.08300
H2163       H  0.90884536  0.50732091  0.30889964     0.08300
H2164       H  0.88995475  0.53282124  0.31219512     0.05100
C2165       C  0.66213399  0.52409798  0.01424217    -0.20700
C2166       C  0.66552583  0.99817241  0.99785338    -0.07200
C2167       C  0.63930416  0.97302859  0.50367284     0.13600
C2168       C  0.61228382  0.97758541  0.50468516    -0.20700
C2169       C  0.61049271  0.00668113  0.00021265    -0.07300
C2170       C  0.63539895  0.52865727  0.01676541     0.13600
C2171       C  0.63557101  0.55204156  0.03822975    -0.24100
H2172       H  0.68189741  0.53737143  0.02746829     0.14900
H2173       H  0.59233456  0.95883394  0.50982322     0.14900
C2174       C  0.63913888  0.94180350  0.50965676    -0.24000
H2175       H  0.65764661  0.56244637  0.05043884     0.05100
H2176       H  0.61915818  0.54182993  0.05596279     0.08400
H2177       H  0.61509940  0.55930556  0.46274522     0.08400
H2178       H  0.64797629  0.93490805  0.01120845     0.08300
H2179       H  0.64625855  0.93426611  0.48916932     0.08300
H2180       H  0.61661502  0.92565574  0.51447033     0.05100
C2181       C  0.84947346  0.51026999  0.01582265    -0.20700
C2182       C  0.82754305  0.48994621  0.49818785    -0.07200
C2183       C  0.83520160  0.96768284  0.48326746     0.13600
C2184       C  0.86440176  0.96834394  0.48374992    -0.20700
C2185       C  0.88593032  0.48890440  0.49858255    -0.07300
C2186       C  0.87846456  0.50993201  0.01576242     0.13600
C2187       C  0.90268661  0.53153068  0.03549119    -0.24100
H2188       H  0.84521757  0.52587788  0.02983781     0.14900
H2189       H  0.86848988  0.95154726  0.47144485     0.14900
C2190       C  0.81115259  0.94404498  0.46532145    -0.24000
H2191       H  0.89402169  0.54527119  0.04866114     0.05100
H2192       H  0.92176046  0.54977952  0.51354565     0.08400
H2193       H  0.91280596  0.51918698  0.05230889     0.08400
H2194       H  0.79969691  0.95462772  0.44795128     0.08300
H2195       H  0.79557720  0.94407930  0.95826376     0.08300
H2196       H  0.82027558  0.93013231  0.45296815     0.05100
C2197       C  0.98331745  0.51730365  0.35875612    -0.20700
C2198       C  0.00311110  0.50865361  0.34324746    -0.07200
C2199       C  0.52111870  0.49240530  0.35998203     0.13600
C2200       C  0.51373310  0.98070418  0.39037634    -0.20700
C2201       C  0.99222740  0.98658940  0.40646006    -0.07300
C2202       C  0.97902071  0.00585280  0.39114988     0.13600
C2203       C  0.95832683  0.01679711  0.40677161    -0.24100
H2204       H  0.97265753  0.53150153  0.34679115     0.14900
H2205       H  0.52417882  0.96624649  0.40217477     0.14900
C2206       C  0.54218237  0.48202091  0.34431588    -0.24000
H2207       H  0.95157657  0.03308320  0.39187975     0.05100
H2208       H  0.96983912  0.53234739  0.42613839     0.08400
H2209       H  0.93775176  0.99787852  0.41236723     0.08400
H2210       H  0.56241742  0.50127227  0.33852520     0.08300
H2211       H  0.53090243  0.96945432  0.32290340     0.08300
H2212       H  0.54948046  0.46613802  0.35926761     0.05100
C2213       C  0.48403358  0.52055339  0.10927900    -0.20700
C2214       C  0.00059073  0.50572359  0.09312588    -0.07200
C2215       C  0.01691123  0.98855636  0.11136184     0.13600
C2216       C  0.01031096  0.97996551  0.14200382    -0.20700
C2217       C  0.98974329  0.98831928  0.15647744    -0.07300
C2218       C  0.47690541  0.51030520  0.13946311     0.13600
C2219       C  0.45407887  0.51904665  0.15401869    -0.24100
H2220       H  0.47245394  0.53369800  0.09685931     0.14900
H2221       H  0.02118693  0.96634749  0.15473800     0.14900
C2222       C  0.03832159  0.97767685  0.09696044    -0.24000
H2223       H  0.43421355  0.49902196  0.15886215     0.05100
H2224       H  0.44641487  0.53445587  0.13871536     0.08400
H2225       H  0.46382354  0.53053981  0.17565458     0.08400
H2226       H  0.05858317  0.99674795  0.09086799     0.08300
H2227       H  0.02746872  0.96533402  0.07607553     0.08300
H2228       H  0.04560291  0.96240854  0.11288450     0.05100
C2229       C  0.96665251  0.83461565  0.24783973    -0.20700
C2230       C  0.99431280  0.83161543  0.24554760    -0.07200
C2231       C  0.52033284  0.85953758  0.25932449     0.13600
C2232       C  0.51784714  0.88769812  0.25596650    -0.20700
C2233       C  0.98950830  0.88858730  0.24429312    -0.07300
C2234       C  0.96389320  0.86258144  0.24729653     0.13600
C2235       C  0.93368028  0.86400961  0.25119088    -0.24100
H2236       H  0.94685264  0.81490256  0.25033589     0.14900
H2237       H  0.53614939  0.90680278  0.26453457     0.14900
C2238       C  0.54809127  0.85709924  0.27553350    -0.24000
H2239       H  0.91667340  0.84156907  0.25550426     0.05100
H2240       H  0.92602900  0.87379804  0.23006048     0.08400
H2241       H  0.93481318  0.87768401  0.27106451     0.08400
H2242       H  0.56037070  0.84946529  0.25955405     0.08300
H2243       H  0.54203749  0.84126799  0.29562892     0.08300
H2244       H  0.56348409  0.87884592  0.28404991     0.05100
C2245       C  0.97493757  0.61064303  0.25259193    -0.20700
C2246       C  0.00310310  0.60833803  0.25458077    -0.07200
C2247       C  0.52239908  0.63420910  0.27836076     0.13600
C2248       C  0.51862112  0.66171070  0.27712315    -0.20700
C2249       C  0.99729511  0.66482029  0.25348655    -0.07300
C2250       C  0.97156674  0.63839588  0.25204461     0.13600
C2251       C  0.94040208  0.63874718  0.24978659    -0.24100
H2252       H  0.95534169  0.59047100  0.25179336     0.14900
H2253       H  0.53243164  0.67898337  0.29223434     0.14900
C2254       C  0.54632769  0.63041610  0.30068095    -0.24000
H2255       H  0.92334298  0.61594893  0.24864146     0.05100
H2256       H  0.93700151  0.65139406  0.22859656     0.08400
H2257       H  0.93651905  0.64890495  0.27034740     0.08400
H2258       H  0.56358071  0.62656760  0.28800212     0.08300
H2259       H  0.53643034  0.61156258  0.31726103     0.08300
H2260       H  0.55780573  0.65054222  0.31422534     0.05100
C2261       C  0.52216245  0.76596775  0.39679795    -0.20700
C2262       C  0.99658942  0.74750847  0.40711366    -0.07200
C2263       C  0.97440591  0.72557931  0.38965585     0.13600
C2264       C  0.97563431  0.72660326  0.35757536    -0.20700
C2265       C  0.99858209  0.74864528  0.34225945    -0.07300
C2266       C  0.52371844  0.76752251  0.36474846     0.13600
C2267       C  0.55145437  0.78928961  0.35110246    -0.24100
H2268       H  0.54082616  0.78033986  0.41057650     0.14900
H2269       H  0.95861725  0.70976454  0.34432411     0.14900
C2270       C  0.94995359  0.70032871  0.40456909    -0.24000
H2271       H  0.56756762  0.80258419  0.36891936     0.05100
H2272       H  0.54558068  0.80507851  0.33469832     0.08400
H2273       H  0.56287415  0.77715979  0.33927018     0.08400
H2274       H  0.93519705  0.70905281  0.41591322     0.08300
H2275       H  0.95976807  0.68800538  0.42171619     0.08300
H2276       H  0.93586238  0.68424184  0.38754284     0.05100
C2277       C  0.52125134  0.75600068  0.14708666    -0.20700
C2278       C  0.99252198  0.74665131  0.15715710    -0.07200
C2279       C  0.97079757  0.72401064  0.14002697     0.13600
C2280       C  0.97228905  0.72442000  0.10798587    -0.20700
C2281       C  0.99461287  0.74698318  0.09244940    -0.07300
C2282       C  0.52289723  0.75637388  0.11513745     0.13600
C2283       C  0.55263922  0.76086248  0.10283570    -0.24100
H2284       H  0.54128660  0.75909019  0.16155742     0.14900
H2285       H  0.95594620  0.70684786  0.09494763     0.14900
C2286       C  0.94640916  0.69892805  0.15522554    -0.24000
H2287       H  0.57007427  0.76278257  0.12152397     0.05100
H2288       H  0.56030387  0.78177605  0.08844454     0.08400
H2289       H  0.55084045  0.74157661  0.08921612     0.08400
H2290       H  0.93145370  0.70784492  0.16597178     0.08300
H2291       H  0.95619482  0.68707263  0.17295005     0.08300
H2292       H  0.93254798  0.68241352  0.13845677     0.05100
C2293       C  0.98373298  0.87107074  0.47061853    -0.20700
C2294       C  0.99748566  0.88981910  0.49505904    -0.07200
C2295       C  0.51495520  0.88122535  0.51757924     0.13600
C2296       C  0.51534488  0.85225433  0.51759923    -0.20700
C2297       C  0.99912626  0.83197049  0.49473969    -0.07300
C2298       C  0.98435656  0.84231933  0.47017836     0.13600
C2299       C  0.96982098  0.82331806  0.44314540    -0.24100
H2300       H  0.97218227  0.87885193  0.45173504     0.14900
H2301       H  0.52907798  0.84526549  0.53486127     0.14900
C2302       C  0.53400963  0.90407392  0.03861751    -0.24000
H2303       H  0.96064861  0.83550252  0.42518883     0.05100
H2304       H  0.95120813  0.80319038  0.45070155     0.08400
H2305       H  0.98642929  0.81646363  0.43260825     0.08400
H2306       H  0.52106250  0.91219391  0.05337496     0.08300
H2307       H  0.55036799  0.92131956  0.53182800     0.08300
H2308       H  0.54654246  0.89292190  0.05397865     0.05100
C2309       C  0.98170568  0.64538616  0.48146197    -0.20700
C2310       C  0.99535889  0.66261232  0.00584495    -0.07200
C2311       C  0.51057841  0.65678666  0.03325896     0.13600
C2312       C  0.51121145  0.62805321  0.03238048    -0.20700
C2313       C  0.99742436  0.60469274  0.00540882    -0.07300
C2314       C  0.98272237  0.61665225  0.48142424     0.13600
C2315       C  0.96883764  0.59798508  0.45400686    -0.24100
H2316       H  0.97091249  0.65350307  0.46216589     0.14900
H2317       H  0.52159176  0.61951519  0.05171497     0.14900
C2318       C  0.52427594  0.67515199  0.06090131    -0.24000
H2319       H  0.95939666  0.61009286  0.43620736     0.05100
H2320       H  0.95037982  0.57751658  0.46117141     0.08400
H2321       H  0.98587057  0.59193475  0.44328514     0.08400
H2322       H  0.50730857  0.68165761  0.07117109     0.08300
H2323       H  0.54299187  0.69550616  0.05400939     0.08300
H2324       H  0.53312969  0.66265768  0.07882031     0.05100
O2325       O  0.52398123  0.75871920  0.54868056    -0.74800
O2326       O  0.51918444  0.75876333  0.96056445    -0.74800
O2327       O  0.51906427  0.79902898  0.00071136    -0.74900
O2328       O  0.52337092  0.71829895  0.50836547    -0.74900
O2329       O  0.97153964  0.69962315  0.50088202    -0.74900
O2330       O  0.96931823  0.77626727  0.99587178    -0.74800
O2331       O  0.96916011  0.73633964  0.95504138    -0.74800
O2332       O  0.97340469  0.73986476  0.54237685    -0.74900
Ni2333     Ni  0.52167721  0.76035648  0.00435913     1.25400
Ni2334     Ni  0.97091028  0.73911650  0.49829086     1.25400
C2335       C  0.99838227  0.74836657  0.55810923     0.87400
C2336       C  0.99378687  0.74523014  0.94177608     0.87300
C2337       C  0.49398060  0.80256164  0.99846765     0.87300
C2338       C  0.49873207  0.69613480  0.50848236     0.87500
O2339       O  0.97193974  0.77868171  0.74728835    -0.74800
O2340       O  0.97203526  0.69919253  0.75069040    -0.74800
O2341       O  0.97245470  0.73822317  0.79293918    -0.74900
O2342       O  0.97159828  0.73966411  0.70510218    -0.74900
O2343       O  0.52205692  0.76274661  0.71120025    -0.74900
O2344       O  0.52237169  0.76285548  0.79900646    -0.74800
O2345       O  0.52285949  0.72338024  0.75791006    -0.74800
O2346       O  0.52178583  0.80243136  0.75241312    -0.74900
Ni2347     Ni  0.97025956  0.73832452  0.74891106     1.25400
Ni2348     Ni  0.52402975  0.76352736  0.75522854     1.25400
C2349       C  0.99656464  0.80098901  0.74772463     0.87400
C2350       C  0.99691512  0.69523157  0.75303677     0.87300
C2351       C  0.99733817  0.74758483  0.80869932     0.87300
C2352       C  0.99607643  0.74816027  0.69159895     0.87500
O2353       O  0.91781382  0.96518927  0.98433183    -0.81300
O2354       O  0.55774990  0.98990170  0.99108130    -0.66000
O2355       O  0.97796986  0.97516467  0.50883444    -1.12600
C2356       C  0.00235801  0.57780025  0.50704610     1.05600
O2357       O  0.57954748  0.53266157  0.51432166    -0.79200
O2358       O  0.53609228  0.52812833  0.55339090    -0.66700
Ni2359     Ni  0.94578947  0.94563393  0.98187142     1.34900
C2360       C  0.00809330  0.51968486  0.56300326     0.84400
O2361       O  0.51117883  0.94310759  0.00704579    -0.79700
O2362       O  0.96869298  0.92073147  0.97722235    -0.90000
C2363       C  0.58144719  0.00919160  0.50214805     0.83900
O2364       O  0.96015375  0.96867391  0.94575066    -0.68200
O2365       O  0.52729308  0.57567041  0.52181761    -0.87500
C2366       C  0.98645245  0.97665890  0.93707016     0.84800
C2367       C  0.99112296  0.91761211  0.99212897     1.06300
H2368       H  0.52248405  0.53195931  0.97069296     0.38100
O2369       O  0.51980732  0.52598065  0.99212687    -1.10100
O2370       O  0.98634721  0.52041618  0.54485126    -0.66800
Ni2371     Ni  0.97952465  0.51562674  0.50068902     1.26300
O2372       O  0.50923115  0.97871051  0.95487541    -0.67000
O2373       O  0.98379267  0.55610033  0.49294694    -0.79300
C2374       C  0.91593588  0.48675450  0.49758346     0.84100
O2375       O  0.93888463  0.50774718  0.50715360    -0.66500
Ni2376     Ni  0.55079420  0.55140638  0.51727186     1.27400
Ni2377     Ni  0.51763366  0.98405908  0.99867420     1.26100
H2378       H  0.97524620  0.96956953  0.53028110     0.38700
O2379       O  0.91901915  0.96889575  0.73699696    -0.81300
O2380       O  0.55749255  0.99106982  0.74227241    -0.66000
O2381       O  0.97705399  0.97629009  0.75724574    -1.12600
C2382       C  0.00518307  0.57807923  0.76111442     1.05600
O2383       O  0.58027481  0.53558744  0.76281083    -0.79200
O2384       O  0.53873894  0.53168302  0.80397736    -0.66700
Ni2385     Ni  0.94661074  0.94946605  0.73151462     1.34900
C2386       C  0.00927851  0.51777383  0.81477015     0.84400
O2387       O  0.50999112  0.94525673  0.75870157    -0.79700
O2388       O  0.96910739  0.92460938  0.72464596    -0.90000
C2389       C  0.58163339  0.01136006  0.75074242     0.83900
O2390       O  0.96142301  0.97455446  0.69640601    -0.68200
O2391       O  0.53061389  0.58054346  0.77433129    -0.87500
C2392       C  0.98748865  0.98100310  0.68738390     0.84800
C2393       C  0.98938638  0.91922931  0.74143705     1.06300
H2394       H  0.52472678  0.53396282  0.72195330     0.38100
O2395       O  0.52172862  0.52773229  0.74329179    -1.10100
O2396       O  0.98767278  0.51986092  0.79716973    -0.66800
Ni2397     Ni  0.97976013  0.51608394  0.75301557     1.26300
O2398       O  0.50897469  0.98169739  0.70666223    -0.67000
O2399       O  0.98598725  0.55728233  0.74627296    -0.79300
C2400       C  0.91931387  0.99202681  0.74967575     0.84100
O2401       O  0.93954359  0.50974433  0.76009845    -0.66500
Ni2402     Ni  0.55276596  0.55531904  0.76784763     1.27400
Ni2403     Ni  0.51793226  0.98666064  0.75054114     1.26100
H2404       H  0.97353334  0.96970672  0.77843389     0.38700
O2405       O  0.71634385  0.52319504  0.99364733    -0.74800
O2406       O  0.79351383  0.51800305  0.99833572    -0.74800
O2407       O  0.75407922  0.52042406  0.95178669    -0.74900
O2408       O  0.75644265  0.51913298  0.53871897    -0.74900
O2409       O  0.73957609  0.96787905  0.54231893    -0.74900
O2410       O  0.73552319  0.97020492  0.95392055    -0.74800
O2411       O  0.77634042  0.96651360  0.49917271    -0.74800
O2412       O  0.69849728  0.97019510  0.49782950    -0.74900
Ni2413     Ni  0.75554651  0.52220572  0.99583745     1.25400
Ni2414     Ni  0.73670139  0.96652712  0.49851581     1.25400
C2415       C  0.69379834  0.49650205  0.49324374     0.87400
C2416       C  0.79585603  0.49238687  0.99890679     0.89500
C2417       C  0.74336115  0.49563414  0.93812669     0.87300
C2418       C  0.74655337  0.49443343  0.55437529     0.87500
O2419       O  0.73864992  0.97301884  0.79192194    -0.74800
O2420       O  0.73888955  0.97194555  0.70428460    -0.74800
O2421       O  0.77795657  0.97121206  0.75179984    -0.74900
O2422       O  0.69944193  0.97373269  0.74450688    -0.74900
O2423       O  0.71690679  0.52378330  0.74338029    -0.74900
O2424       O  0.79537777  0.52056586  0.74776390    -0.74800
O2425       O  0.75535910  0.52264916  0.70151419    -0.74800
O2426       O  0.75714263  0.52212092  0.78935238    -0.74900
Ni2427     Ni  0.73804117  0.97073515  0.74818058     1.25400
Ni2428     Ni  0.75686935  0.52403130  0.74540257     1.25400
C2429       C  0.74830270  0.99795546  0.80523128     0.87400
C2430       C  0.74928394  0.99653684  0.68860410     0.87300
C2431       C  0.80072089  0.99538624  0.75210198     0.87300
C2432       C  0.69594832  0.99886160  0.74248324     0.87500
C2433       C  0.76497759  0.51962614  0.88886807    -0.20700
C2434       C  0.74504028  0.99520650  0.90428692    -0.07200
C2435       C  0.72537398  0.97174796  0.88643987     0.13600
C2436       C  0.72711182  0.97355552  0.85437508    -0.20700
C2437       C  0.74788559  0.99803507  0.83930737    -0.07300
C2438       C  0.76721368  0.52087587  0.85686356     0.13600
C2439       C  0.79143407  0.54696055  0.84271171    -0.24100
H2440       H  0.78024557  0.53759903  0.90226437     0.14900
H2441       H  0.71183261  0.95566063  0.84089003     0.14900
C2442       C  0.70194322  0.94496952  0.90061341    -0.24000
H2443       H  0.80591395  0.56200143  0.86037459     0.05100
H2444       H  0.78156815  0.56043400  0.82714172     0.08400
H2445       H  0.80573712  0.53883719  0.82981239     0.08400
H2446       H  0.68752010  0.95226711  0.91424792     0.08300
H2447       H  0.71261551  0.93172641  0.91550433     0.08300
H2448       H  0.68743529  0.92998053  0.88292587     0.05100
C2449       C  0.74759673  0.52107977  0.60176117    -0.20700
C2450       C  0.74991995  0.99223664  0.59019333    -0.07200
C2451       C  0.72786607  0.97037441  0.60731461     0.13600
C2452       C  0.72835143  0.97258783  0.63923450    -0.20700
C2453       C  0.75029211  0.99585705  0.65476329    -0.07300
C2454       C  0.74754873  0.52319227  0.63373007     0.13600
C2455       C  0.74903450  0.55232528  0.64582119    -0.24100
H2456       H  0.74859971  0.54028238  0.58692221     0.14900
H2457       H  0.71115930  0.95612052  0.65216921     0.14900
C2458       C  0.70310425  0.94512776  0.59224643    -0.24000
H2459       H  0.74883379  0.56887482  0.62698014     0.05100
H2460       H  0.76996842  0.56218933  0.66008727     0.08400
H2461       H  0.72955717  0.54868107  0.65961380     0.08400
H2462       H  0.71236591  0.93028600  0.58170492     0.08300
H2463       H  0.69065196  0.95416977  0.57445991     0.08300
H2464       H  0.68703774  0.93125207  0.60901278     0.05100
C2465       C  0.61223263  0.97957469  0.74997916    -0.20700
C2466       C  0.61029183  0.00792413  0.74601433    -0.07200
C2467       C  0.63587803  0.03253228  0.73810429     0.13600
C2468       C  0.66290650  0.02837742  0.73601775    -0.20700
C2469       C  0.66551526  0.00037014  0.74181073    -0.07300
C2470       C  0.63943060  0.97540710  0.74830249     0.13600
C2471       C  0.63978630  0.94439557  0.75445539    -0.24100
H2472       H  0.59250350  0.96067225  0.75557547     0.14900
H2473       H  0.67857739  0.54530895  0.72308503     0.14900
C2474       C  0.63040559  0.56064927  0.72189416    -0.24000
H2475       H  0.61737184  0.92796382  0.75918027     0.05100
H2476       H  0.65477356  0.94400173  0.77490636     0.08400
H2477       H  0.64634187  0.43664962  0.75166691     0.08400
H2478       H  0.63058147  0.07243241  0.75208320     0.08300
H2479       H  0.61186325  0.55619458  0.70405338     0.08300
H2480       H  0.65109851  0.57544350  0.71128350     0.05100
C2481       C  0.86638381  0.96835741  0.76129476    -0.20700
C2482       C  0.89012681  0.99451799  0.75385899    -0.07200
C2483       C  0.88209636  0.51933936  0.74391739     0.13600
C2484       C  0.85307794  0.51952047  0.74399116    -0.20700
C2485       C  0.83137682  0.99441492  0.75461875    -0.07300
C2486       C  0.83724170  0.96786560  0.76207003     0.13600
C2487       C  0.81332775  0.93877611  0.77100161    -0.24100
H2488       H  0.87065767  0.94788886  0.76614383     0.14900
H2489       H  0.84937231  0.54005747  0.73772849     0.14900
C2490       C  0.90700260  0.54745102  0.73446279    -0.24000
H2491       H  0.82260985  0.92120277  0.77800847     0.05100
H2492       H  0.79718908  0.93047712  0.75122743     0.08400
H2493       H  0.80178355  0.94186146  0.79080907     0.08400
H2494       H  0.91754189  0.54338778  0.71434204     0.08300
H2495       H  0.92392942  0.55482992  0.75378241     0.08300
H2496       H  0.89890609  0.56595524  0.72796921     0.05100
C2497       C  0.66113009  0.52633010  0.48668855    -0.20700
C2498       C  0.66557725  0.99774281  0.49742516    -0.07200
C2499       C  0.63828859  0.97365928  0.99465447     0.13600
C2500       C  0.61126659  0.97840444  0.99533537    -0.20700
C2501       C  0.61055548  0.00596938  0.49978073    -0.07300
C2502       C  0.63431822  0.53081283  0.48921176     0.13600
C2503       C  0.63302555  0.56117529  0.48085423    -0.24100
H2504       H  0.68033483  0.54501599  0.47946414     0.14900
H2505       H  0.59053985  0.95965025  0.99263552     0.14900
C2506       C  0.63714712  0.94242929  0.99069396    -0.24000
H2507       H  0.65425485  0.57676902  0.47191325     0.05100
H2508       H  0.62878722  0.57105838  0.50140702     0.08400
H2509       H  0.63037025  0.57018653  0.02506119     0.08400
H2510       H  0.65415741  0.94108558  0.52995082     0.08300
H2511       H  0.64848718  0.94170699  0.96976666     0.08300
H2512       H  0.61392681  0.92633979  0.98816351     0.05100
C2513       C  0.85158729  0.51190264  0.51291291    -0.20700
C2514       C  0.82572561  0.49058379  0.99837881    -0.07200
C2515       C  0.83696855  0.97769935  0.97355813     0.13600
C2516       C  0.86578610  0.97728779  0.97387349    -0.20700
C2517       C  0.88387133  0.48919464  0.99762715    -0.07300
C2518       C  0.88066831  0.51179268  0.51339925     0.13600
C2519       C  0.90513794  0.53620885  0.52994394    -0.24100
H2520       H  0.84751803  0.52920912  0.52438728     0.14900
H2521       H  0.87113669  0.96554734  0.95623463     0.14900
C2522       C  0.81446732  0.96247239  0.94835842    -0.24000
H2523       H  0.89654382  0.55159212  0.54051825     0.05100
H2524       H  0.91996467  0.54706934  0.02087786     0.08400
H2525       H  0.91599797  0.52641254  0.54867731     0.08400
H2526       H  0.80607927  0.97879584  0.93562076     0.08300
H2527       H  0.79483746  0.92888323  0.48110079     0.08300
H2528       H  0.82424513  0.95275947  0.93164756     0.05100
C2529       C  0.98351439  0.51502359  0.86228623    -0.20700
C2530       C  0.00363505  0.50683102  0.84688449    -0.07200
C2531       C  0.52100327  0.49593783  0.86153943     0.13600
C2532       C  0.51266013  0.98325166  0.88963252    -0.20700
C2533       C  0.99214047  0.98682287  0.90480700    -0.07300
C2534       C  0.97770395  0.00451781  0.88842714     0.13600
C2535       C  0.95520920  0.01397094  0.90271595    -0.24100
H2536       H  0.97339887  0.52984457  0.85067903     0.14900
H2537       H  0.52090056  0.96673556  0.90065262     0.14900
C2538       C  0.54258223  0.48578656  0.84648330    -0.24000
H2539       H  0.94761181  0.02917177  0.88702004     0.05100
H2540       H  0.96634492  0.52577149  0.92988420     0.08400
H2541       H  0.93525044  0.99421850  0.90805439     0.08400
H2542       H  0.56296338  0.50512158  0.84131645     0.08300
H2543       H  0.52517374  0.97008911  0.82121056     0.08300
H2544       H  0.54956803  0.46978374  0.86158154     0.05100
C2545       C  0.48483512  0.52188614  0.60930729    -0.20700
C2546       C  0.00268539  0.50934474  0.59525572    -0.07200
C2547       C  0.02249527  0.99488188  0.61068596     0.13600
C2548       C  0.01534813  0.98523519  0.64100353    -0.20700
C2549       C  0.99408438  0.99257432  0.65545967    -0.07300
C2550       C  0.47832843  0.51362857  0.64009749     0.13600
C2551       C  0.45884687  0.52645489  0.65523673    -0.24100
H2552       H  0.47530527  0.53676906  0.59681058     0.14900
H2553       H  0.02595990  0.97115347  0.65327844     0.14900
C2554       C  0.04393141  0.98433164  0.59587795    -0.24000
H2555       H  0.43795810  0.50843861  0.66176561     0.05100
H2556       H  0.45257486  0.54259917  0.63962831     0.08400
H2557       H  0.47085432  0.53832226  0.67600043     0.08400
H2558       H  0.06416669  0.00355896  0.59003229     0.08300
H2559       H  0.03310219  0.97238356  0.57476405     0.08300
H2560       H  0.05118751  0.96878376  0.61140432     0.05100
C2561       C  0.96837720  0.83505936  0.73877784    -0.20700
C2562       C  0.99582545  0.83173868  0.74648105    -0.07200
C2563       C  0.52100017  0.86272190  0.75774517     0.13600
C2564       C  0.51809703  0.89073820  0.75579260    -0.20700
C2565       C  0.99085636  0.88886933  0.74270959    -0.07300
C2566       C  0.96543235  0.86299274  0.73705054     0.13600
C2567       C  0.93476910  0.86415704  0.73018662    -0.24100
H2568       H  0.94880124  0.81554534  0.73400170     0.14900
H2569       H  0.53715092  0.91013933  0.76233911     0.14900
C2570       C  0.55057655  0.86108355  0.76942913    -0.24000
H2571       H  0.91739822  0.84156175  0.72868998     0.05100
H2572       H  0.93382092  0.87607641  0.70777557     0.08400
H2573       H  0.92910832  0.87550621  0.74876146     0.08400
H2574       H  0.56047526  0.85333406  0.75117979     0.08300
H2575       H  0.54760913  0.84573445  0.78995053     0.08300
H2576       H  0.56676927  0.88313674  0.77624117     0.05100
C2577       C  0.98449437  0.61506191  0.73659383    -0.20700
C2578       C  0.00212011  0.60779301  0.76064928    -0.07200
C2579       C  0.52256089  0.63662291  0.78118432     0.13600
C2580       C  0.51938581  0.66445543  0.77928505    -0.20700
C2581       C  0.99737794  0.66476685  0.75538016    -0.07300
C2582       C  0.98200753  0.64325929  0.73365373     0.13600
C2583       C  0.96411555  0.65039911  0.70659109    -0.24100
H2584       H  0.97314448  0.59886377  0.71945586     0.14900
H2585       H  0.53265825  0.68149962  0.79489489     0.14900
C2586       C  0.54379474  0.63140299  0.80604282    -0.24000
H2587       H  0.95466609  0.63145233  0.69107552     0.05100
H2588       H  0.97853713  0.66990439  0.69308652     0.08400
H2589       H  0.94533810  0.65549101  0.71468674     0.08400
H2590       H  0.56262828  0.62821326  0.79566577     0.08300
H2591       H  0.53188826  0.61161699  0.82076188     0.08300
H2592       H  0.55346058  0.65060619  0.82120775     0.05100
C2593       C  0.51785838  0.77168127  0.89657089    -0.20700
C2594       C  0.99391891  0.74527234  0.90768333    -0.07200
C2595       C  0.97020717  0.72598272  0.88923203     0.13600
C2596       C  0.97225789  0.72733385  0.85722863    -0.20700
C2597       C  0.99732478  0.74721493  0.84284582    -0.07300
C2598       C  0.51977395  0.77356113  0.86459245     0.13600
C2599       C  0.54515995  0.79865224  0.85082679    -0.24100
H2600       H  0.53484090  0.78792951  0.91045769     0.14900
H2601       H  0.95409305  0.71243937  0.84330736     0.14900
C2602       C  0.94294422  0.70329537  0.90284189    -0.24000
H2603       H  0.55930439  0.81388071  0.86852858     0.05100
H2604       H  0.53623559  0.81197723  0.83401698     0.08400
H2605       H  0.55966096  0.78965637  0.83940655     0.08400
H2606       H  0.93024972  0.71469677  0.91378769     0.08300
H2607       H  0.94957901  0.68854357  0.92004912     0.08300
H2608       H  0.92772267  0.68896799  0.88509524     0.05100
C2609       C  0.52357719  0.75455263  0.64819972    -0.20700
C2610       C  0.99590029  0.74783203  0.65735827    -0.07200
C2611       C  0.97024010  0.73222554  0.63867804     0.13600
C2612       C  0.97211062  0.73279899  0.60669676    -0.20700
C2613       C  0.99869801  0.74855281  0.59233534    -0.07300
C2614       C  0.52532569  0.75352823  0.61634201     0.13600
C2615       C  0.55428736  0.75457844  0.60464474    -0.24100
H2616       H  0.54311080  0.75655978  0.66313093     0.14900
H2617       H  0.95241677  0.72064716  0.59275140     0.14900
C2618       C  0.94069084  0.71449721  0.65183458    -0.24000
H2619       H  0.57106836  0.75513015  0.62366796     0.05100
H2620       H  0.56392274  0.77495947  0.58987473     0.08400
H2621       H  0.55052964  0.73447870  0.59150509     0.08400
H2622       H  0.93208756  0.72953632  0.66298158     0.08300
H2623       H  0.94318274  0.69721455  0.66869474     0.08300
H2624       H  0.92365814  0.70291119  0.63382800     0.05100
C2625       C  0.97701341  0.86748376  0.97068270    -0.20700
C2626       C  0.99437143  0.88796420  0.99249718    -0.07200
C2627       C  0.51334002  0.88324947  0.01550549     0.13600
C2628       C  0.51287125  0.85397605  0.01599515    -0.20700
C2629       C  0.99411755  0.82906422  0.99389635    -0.07300
C2630       C  0.97649276  0.83819825  0.97123548     0.13600
C2631       C  0.95761877  0.81737832  0.94714050    -0.24100
H2632       H  0.96333523  0.87423672  0.95319098     0.14900
H2633       H  0.52732136  0.84717854  0.03253940     0.14900
C2634       C  0.53347473  0.90143711  0.54230406    -0.24000
H2635       H  0.94656068  0.82871392  0.93016568     0.05100
H2636       H  0.93993637  0.79846823  0.95807545     0.08400
H2637       H  0.97171599  0.80876485  0.93450750     0.08400
H2638       H  0.51894813  0.90832315  0.55621163     0.08300
H2639       H  0.55060921  0.92313517  0.02659204     0.08300
H2640       H  0.54560471  0.89025876  0.55817824     0.05100
C2641       C  0.97682672  0.64191159  0.98511772    -0.20700
C2642       C  0.99552154  0.66434276  0.50548436    -0.07200
C2643       C  0.51864233  0.65703468  0.53031085     0.13600
C2644       C  0.51931693  0.62840405  0.52895743    -0.20700
C2645       C  0.99772589  0.60664040  0.50643792    -0.07300
C2646       C  0.97780528  0.61319403  0.98424152     0.13600
C2647       C  0.95846353  0.59286656  0.96000123    -0.24100
H2648       H  0.96216987  0.64864466  0.96879057     0.14900
H2649       H  0.53452511  0.62206434  0.54485088     0.14900
C2650       C  0.53828225  0.67748548  0.55430331    -0.24000
H2651       H  0.94540922  0.60379218  0.94509103     0.05100
H2652       H  0.94234921  0.57266283  0.97096335     0.08400
H2653       H  0.97252031  0.58648795  0.94497492     0.08400
H2654       H  0.52440483  0.68469903  0.56876510     0.08300
H2655       H  0.55483869  0.69725703  0.54321320     0.08300
H2656       H  0.55079910  0.66631034  0.56965154     0.05100
loop_ 
_geom_bond_atom_site_label_1 
_geom_bond_atom_site_label_2 
_geom_bond_distance 
_geom_bond_site_symmetry_2 
_ccdc_geom_bond_type 
O1         Ni341   1.917       .  S
O1         C1339   1.281   1_455  A
O2           Ni9   1.915       .  S
O2         C1340   1.281   1_455  A
O3           Ni9   1.920       .  S
O3           C13   1.282   1_455  A
O4         Ni341   1.907       .  S
O4           C14   1.279       .  A
O5          Ni10   1.916       .  S
O5         C1342   1.279   1_556  A
O6         Ni342   1.915       .  S
O6         C1341   1.280       .  A
O7         Ni342   1.919       .  S
O7           C12   1.281       .  A
O8          Ni10   1.920   1_554  S
O8           C11   1.282       .  A
Ni9         O333   1.916       .  S
Ni9         O336   1.919       .  S
Ni9       Ni1670   2.382   1_455  S
Ni10        O338   1.912       .  S
Ni10        O339   1.917       .  S
Ni10      Ni1669   2.382       .  S
C11        O1329   1.281       .  A
C11         C289   1.494       .  S
C12        O1330   1.283       .  A
C12         C270   1.492       .  S
C13        O1334   1.280       .  A
C13        C1633   1.496       .  S
C14        O1333   1.281   1_455  A
C14        C1646   1.480       .  S
O15         Ni23   1.921       .  S
O15          C25   1.284       .  A
O16         Ni23   1.920       .  S
O16          C26   1.281       .  A
O17         Ni23   1.920       .  S
O17          C27   1.283       .  A
O18         Ni23   1.920       .  S
O18          C28   1.281       .  A
O19         Ni24   1.919       .  S
O19        C1356   1.283   1_455  A
O20         Ni24   1.918       .  S
O20        C1355   1.281       .  A
O21         Ni24   1.919       .  S
O21        C1354   1.282       .  A
O22         Ni24   1.919       .  S
O22        C1353   1.280   1_455  A
Ni23      Ni1352   2.381       .  S
Ni24      Ni1351   2.383   1_455  S
C25        O1350   1.280       .  A
C25         C238   1.498       .  S
C26        O1349   1.281       .  A
C26         C257   1.479       .  S
C27        O1348   1.280       .  A
C27         C273   1.492       .  S
C28        O1347   1.282       .  A
C28         C286   1.492       .  S
O29         Ni35   1.926       .  S
O29        C1046   1.273       .  A
O30         Ni53   1.911       .  S
O30         C371   1.271       .  A
O31          H54   0.963       .  S
O31        Ni367   1.915   1_554  S
O31       Ni1713   1.906   1_554  S
O31        Ni711   1.918       .  S
C32          O49   1.266   1_554  A
C32        O1369   1.272       .  A
C32         C321   1.482       .  S
O33         Ni52   1.923       .  S
O33         C703   1.271       .  A
O34         Ni52   1.901       .  S
O34        C1364   1.270       .  A
Ni35         O38   1.937       .  S
Ni35         O40   1.902       .  S
Ni35        O363   1.915       .  S
C36          O46   1.279       .  A
C36        O1362   1.267       .  A
C36         C222   1.484       .  S
O37         Ni53   1.906       .  S
O37        C1371   1.266   1_455  A
O38          C43   1.274       .  A
C39         O362   1.270   1_554  A
C39         O697   1.270       .  A
C39         C177   1.481   1_554  S
O40          C42   1.270       .  A
O41         Ni52   1.935       .  S
O41        C1360   1.273       .  A
C42        O1376   1.277       .  A
C42         C209   1.483       .  S
C43        O1365   1.265       .  A
C43         C302   1.494       .  S
H44          O45   0.966       .  S
O45        Ni717   1.917   1_545  S
O45       Ni1707   1.910   1_455  S
O45        Ni384   1.915       .  S
O46         Ni47   1.946   1_554  S
Ni47         O51   1.912   1_556  S
Ni47         O49   1.901       .  S
Ni47        O695   1.920   1_546  S
Ni47       O1705   1.907       .  S
O48         Ni53   1.950       .  S
O48        C1370   1.281   1_455  A
C50          O51   1.270   1_566  A
C50        O1025   1.271       .  A
C50         C525   1.482   1_556  S
Ni52        O377   1.916   1_554  S
Ni53       O1691   1.911   1_455  S
Ni53        O709   1.914       .  S
O55         Ni61   1.924       .  S
O55          C76   1.273       .  A
O56         Ni79   1.906       .  S
O56          C65   1.267       .  A
O57          H80   0.966       .  S
O57         Ni61   1.915       .  S
O57       Ni1407   1.907       .  S
O57        Ni737   1.917       .  S
C58          O75   1.268       .  A
C58        O1395   1.272       .  A
C58         C254   1.495       .  S
O59         Ni78   1.923       .  S
O59         C729   1.271       .  A
O60         Ni78   1.901       .  S
O60        C1390   1.270       .  A
Ni61         O64   1.934       .  S
Ni61         O66   1.899       .  S
C62          O72   1.278       .  A
C62        O1388   1.269       .  A
C62         C206   1.483       .  S
O63         Ni79   1.903       .  S
O63        C1397   1.266   1_455  A
O64          C69   1.271       .  A
C65         O723   1.270       .  A
C65         C142   1.476       .  S
O66          C68   1.268       .  A
O67         Ni78   1.935       .  S
O67        C1386   1.271       .  A
C68        O1402   1.276       .  A
C68         C225   1.480       .  S
C69        O1391   1.269       .  A
C69         C241   1.485       .  S
H70          O71   0.966       .  S
O71         Ni78   1.916       .  S
O71        Ni743   1.921   1_545  S
O71       Ni1401   1.905   1_455  S
O72         Ni73   1.945       .  S
Ni73         O77   1.906       .  S
Ni73         O75   1.904       .  S
Ni73        O721   1.920   1_545  S
Ni73       O1399   1.905       .  S
O74         Ni79   1.949       .  S
O74        C1396   1.279   1_455  A
C76         O741   1.269       .  A
C76         C158   1.493       .  S
O77         C740   1.268   1_545  A
Ni79       O1385   1.905   1_455  S
Ni79        O735   1.917       .  S
O81         Ni89   1.916       .  S
O81         C423   1.283   1_545  A
O82         Ni89   1.913       .  S
O82          C92   1.279   1_545  A
O83         Ni89   1.928       .  S
O83          C93   1.284   1_545  A
O84        Ni421   1.923   1_554  S
O84          C94   1.283   1_545  A
O85         Ni90   1.919       .  S
O85         C758   1.281       .  A
O86        Ni422   1.912       .  S
O86         C757   1.279       .  A
O87         Ni90   1.911       .  S
O87        C1088   1.279       .  A
O88         Ni90   1.912   1_556  S
O88         C755   1.279       .  A
Ni89        O416   1.926       .  S
Ni89      Ni1086   2.384   1_545  S
Ni90        O418   1.920   1_554  S
Ni90      Ni1085   2.380       .  S
C91         O413   1.282   1_565  A
C91         O752   1.280       .  A
C91         C838   1.492       .  S
C92        O1083   1.282       .  A
C92         C190   1.475       .  S
C93         O750   1.281       .  A
C93         C774   1.488       .  S
C94         O749   1.280       .  A
C94         C790   1.493       .  S
O95        Ni103   1.922       .  S
O95         C105   1.283       .  A
O96        Ni103   1.920       .  S
O96         C106   1.283       .  A
O97        Ni103   1.918       .  S
O97         C107   1.281       .  A
O98        Ni103   1.919       .  S
O98         C108   1.280       .  A
O99        Ni104   1.919       .  S
O99         C772   1.284   1_545  A
O100       Ni104   1.918       .  S
O100        C771   1.282   1_545  A
O101       Ni104   1.919       .  S
O101        C770   1.280   1_545  A
O102       Ni104   1.917       .  S
O102        C769   1.280   1_545  A
Ni103      Ni768   2.384       .  S
Ni104      Ni767   2.382   1_545  S
C105        O766   1.280       .  A
C105        C113   1.490       .  S
C106        O765   1.281       .  A
C106        C129   1.491       .  S
C107        O764   1.281       .  A
C107        C161   1.479       .  S
C108        O763   1.283       .  A
C108        C145   1.490       .  S
C109        C114   1.407       .  A
C109        C774   1.405   1_545  A
C109        H116   1.084       .  S
C110        C757   1.493       .  S
C110        C111   1.420       .  A
C110        C773   1.406       .  A
C111        C112   1.405       .  A
C111        C118   1.509       .  S
C112        C113   1.405       .  A
C112        H117   1.084       .  S
C113        C778   1.418       .  A
C114        C777   1.416   1_545  A
C114        C115   1.509       .  S
C115        H119   1.111       .  S
C115        H120   1.109       .  S
C115        H121   1.111       .  S
C118        H122   1.109       .  S
C118        H123   1.110       .  S
C118        H124   1.111       .  S
C125        C130   1.407       .  A
C125        C790   1.406   1_545  A
C125        H132   1.084       .  S
C126        C758   1.491       .  S
C126        C127   1.418       .  A
C126        C789   1.406       .  A
C127        C128   1.405       .  A
C127        C134   1.508       .  S
C128        C129   1.405       .  A
C128        H133   1.084       .  S
C129        C794   1.418       .  A
C130        C793   1.420   1_545  A
C130        C131   1.508       .  S
C131        H135   1.111       .  S
C131        H136   1.111       .  S
C131        H137   1.110       .  S
C134        H138   1.111       .  S
C134        H139   1.109       .  S
C134        H140   1.111       .  S
C141        C142   1.401       .  A
C141        C146   1.406       .  A
C141        H148   1.085       .  S
C142        C143   1.412       .  A
C143        C144   1.403       .  A
C143        C814   1.508       .  S
C144        C145   1.407       .  A
C144        H813   1.084       .  S
C145        C146   1.421       .  A
C146        C147   1.508       .  S
C147        H151   1.111       .  S
C147        H152   1.111       .  S
C147        H817   1.109       .  S
H149        C808   1.084       .  S
C150        C807   1.509       .  S
C150        H155   1.110       .  S
C150        H156   1.111       .  S
C150        H818   1.109       .  S
H153        C811   1.110       .  S
H154        C814   1.109       .  S
C157        C158   1.408       .  A
C157        C162   1.401       .  A
C157        H164   1.084       .  S
C158        C823   1.420       .  A
C159        C160   1.405       .  A
C159        C822   1.412   1_545  A
C159        C166   1.508       .  S
C160        C825   1.409   1_545  A
C160        H165   1.083       .  S
C161        C162   1.411       .  A
C161        C824   1.404       .  A
C162        C163   1.509       .  S
C163        H167   1.111       .  S
C163        H168   1.111       .  S
C163        H169   1.109       .  S
C166        H170   1.111       .  S
C166        H171   1.110       .  S
C166        H172   1.111       .  S
C173        C178   1.402       .  A
C173        C838   1.408   1_545  A
C173        H180   1.084       .  S
C174        C755   1.491       .  S
C174        C837   1.407       .  A
C174        C507   1.422   1_556  A
C175        C176   1.407       .  A
C175        C506   1.413       .  A
C175        C182   1.507       .  S
C176        C509   1.409       .  A
C176        H181   1.083       .  S
C177        C508   1.400   1_556  A
C177        C842   1.415       .  A
C178        C841   1.414       .  A
C178        C179   1.509       .  S
C179        H183   1.111       .  S
C179        H184   1.109   1_556  S
C179        H517   1.110       .  S
C182        H187   1.110       .  S
C182        H188   1.111       .  S
C182        H518   1.109       .  S
H185        C511   1.111       .  S
H186        C514   1.111       .  S
C189        C194   1.406       .  A
C189        C522   1.410   1_546  A
C189        H196   1.084       .  S
C190        C521   1.403   1_565  A
C190        C855   1.410       .  A
C191        C192   1.401       .  A
C191        C854   1.413       .  A
C191        C198   1.510       .  S
C192        C857   1.409       .  A
C192        H197   1.083       .  S
C193        C382   1.490       .  S
C193        C856   1.408       .  A
C193        C526   1.419   1_565  A
C194        C525   1.412   1_546  A
C194        C195   1.507       .  S
C195        H199   1.111       .  S
C195        H201   1.110       .  S
C195        H532   1.111       .  S
C198        H202   1.111       .  S
C198        H204   1.111       .  S
C198        H535   1.109       .  S
H200        C527   1.110       .  S
H203        C530   1.110       .  S
C205        C206   1.404       .  A
C205        C874   1.403       .  A
C205        H212   1.084       .  S
C206       C1535   1.418   1_545  A
C207       C1534   1.416   1_565  A
C207        C872   1.401       .  A
C207        C214   1.509       .  S
C208        C871   1.402       .  A
C208       C1537   1.401   1_455  A
C208        H213   1.084       .  S
C209        C210   1.417       .  A
C209       C1536   1.404       .  A
C210        C869   1.403       .  A
C210        C211   1.509       .  S
C211        H215   1.111       .  S
C211        H217   1.109       .  S
C211        H880   1.111       .  S
C214        H218   1.110       .  S
C214        H220   1.111       .  S
C214        H883   1.111       .  S
H216        C875   1.111       .  S
H219        C878   1.111       .  S
C221        C226   1.404       .  A
C221       C1550   1.405   1_655  A
C221        H228   1.084       .  S
C222       C1549   1.404       .  A
C222        C887   1.419   1_545  A
C223        C224   1.402       .  A
C223        C886   1.416       .  A
C223        C230   1.509       .  S
C224        C225   1.405       .  A
C224        H229   1.084       .  S
C225       C2218   1.417       .  A
C226       C2217   1.417   1_545  A
C226        C227   1.509       .  S
C227        H231   1.109   1_545  S
C227        H232   1.111       .  S
C227        H233   1.111       .  S
C230        H234   1.110       .  S
C230        H235   1.111       .  S
C230        H236   1.111       .  S
C237        C238   1.408       .  A
C237        C242   1.403       .  A
C237        H244   1.083       .  S
C238       C1567   1.424       .  A
C239        C240   1.405       .  A
C239       C1566   1.421   1_455  A
C239        C246   1.508       .  S
C240       C1569   1.404   1_455  A
C240        H245   1.084       .  S
C241        C242   1.415       .  A
C241       C1568   1.402       .  A
C242        C243   1.510       .  S
C243        H247   1.111       .  S
C243        H248   1.109       .  S
C243        H249   1.111       .  S
C246        H250   1.109       .  S
C246        H251   1.109       .  S
C246        H252   1.111       .  S
C253        C254   1.410       .  A
C253        C258   1.405       .  A
C253        H260   1.084       .  S
C254       C1583   1.424       .  A
C255        C256   1.405       .  A
C255       C1582   1.425       .  A
C255        C262   1.509       .  S
C256       C1585   1.400       .  A
C256        H261   1.084       .  S
C257        C258   1.412       .  A
C257       C1584   1.400       .  A
C258        C259   1.508       .  S
C259        H263   1.111       .  S
C259        H264   1.111       .  S
C259        H265   1.109       .  S
C262        H266   1.110       .  S
C262        H267   1.111       .  S
C262        H268   1.111       .  S
C269        C274   1.404       .  A
C269       C1598   1.404   1_455  A
C269        H276   1.084       .  S
C270        C271   1.419       .  A
C270       C1597   1.406       .  A
C271        C272   1.405       .  A
C271        C278   1.508       .  S
C272        C273   1.406       .  A
C272        H277   1.084       .  S
C273       C1602   1.419       .  A
C274       C1601   1.417       .  A
C274        C275   1.507       .  S
C275        H279   1.111       .  S
C275        H280   1.109       .  S
C275        H281   1.109       .  S
C278        H282   1.110       .  S
C278        H283   1.110       .  S
C278        H284   1.111       .  S
C285        C290   1.404       .  A
C285       C1614   1.406   1_455  A
C285        H292   1.084       .  S
C286        C287   1.419       .  A
C286       C1613   1.405       .  A
C287        C288   1.407       .  A
C287        C294   1.508       .  S
C288        C289   1.408       .  A
C288        H293   1.084       .  S
C289       C1618   1.418       .  A
C290       C1617   1.420   1_455  A
C290        C291   1.509       .  S
C291        H295   1.111       .  S
C291        H296   1.110       .  S
C291        H297   1.110       .  S
C294        H298   1.111       .  S
C294        H299   1.109       .  S
C294        H300   1.111       .  S
C301        C302   1.409       .  A
C301        C306   1.402       .  A
C301        H308   1.083       .  S
C302       C1631   1.423       .  A
C303        C304   1.407       .  A
C303       C1630   1.412   1_455  A
C303        C642   1.508       .  S
C304       C1633   1.412   1_455  A
C304        H309   1.083       .  S
C305       C1341   1.475       .  S
C305        C306   1.409       .  A
C305       C1632   1.402       .  A
C306        C307   1.508       .  S
C307        H311   1.111       .  S
C307        H312   1.109       .  S
C307        H313   1.111       .  S
C310        C635   1.508       .  S
C310        H314   1.110       .  S
C310        H316   1.111       .  S
C310        H647   1.108       .  S
H315        C642   1.110       .  S
C317        C322   1.406       .  A
C317        C650   1.401       .  A
C317        H324   1.084       .  S
C318       C1342   1.472       .  S
C318        C649   1.401   1_554  A
C318       C1647   1.409       .  A
C319        C320   1.401       .  A
C319       C1646   1.414       .  A
C319        C326   1.510       .  S
C320       C1649   1.409       .  A
C320        H325   1.083       .  S
C321       C1648   1.406       .  A
C321        C654   1.418   1_554  A
C322        C653   1.423       .  A
C322        C323   1.509       .  S
C323        H327   1.111       .  S
C323        H328   1.110       .  S
C323        H329   1.110       .  S
C326        H330   1.111       .  S
C326        H331   1.110       .  S
C326        H332   1.111       .  S
O333       C1671   1.280   1_455  A
O334       Ni341   1.920   1_556  S
O334       C1672   1.282   1_455  A
O335       Ni341   1.908       .  S
O335        C345   1.278   1_454  A
O336        C346   1.282       .  A
O337       Ni342   1.917       .  S
O337       C1674   1.281       .  A
O338       C1673   1.280       .  A
O339        C344   1.280       .  A
O340       Ni342   1.919       .  S
O340        C343   1.283       .  A
Ni341     Ni1338   2.385   1_455  S
Ni342     Ni1337   2.385       .  S
C343       O1661   1.279       .  A
C343        C621   1.489       .  S
C344       O1662   1.283       .  A
C344        C602   1.492       .  S
C345       O1666   1.280       .  A
C345       C1965   1.469       .  S
C346       O1665   1.279   1_455  A
C346       C1978   1.476       .  S
O347       Ni355   1.918       .  S
O347        C357   1.283       .  A
O348       Ni355   1.918       .  S
O348        C358   1.281       .  A
O349       Ni355   1.917       .  S
O349        C359   1.282       .  A
O350       Ni355   1.915       .  S
O350        C360   1.280       .  A
O351       Ni356   1.920       .  S
O351       C1688   1.283   1_455  A
O352       Ni356   1.919       .  S
O352       C1687   1.281   1_455  A
O353       Ni356   1.913       .  S
O353       C1686   1.281   1_455  A
O354       Ni356   1.913       .  S
O354       C1685   1.278   1_455  A
Ni355     Ni1684   2.382       .  S
Ni356     Ni1683   2.381   1_455  S
C357       O1682   1.279       .  A
C357        C570   1.493       .  S
C358       O1681   1.281       .  A
C358        C589   1.484       .  S
C359       O1680   1.281       .  A
C359        C605   1.489       .  S
C360       O1679   1.282       .  A
C360        C618   1.488       .  S
O361       Ni367   1.929       .  S
O361        C714   1.274   1_556  A
O362       Ni385   1.908   1_556  S
O363        H386   0.964       .  S
O363      Ni1381   1.905       .  S
O363      Ni1043   1.918       .  S
C364        O381   1.266       .  A
C364       O1701   1.275       .  A
C364        C653   1.496       .  S
O365       Ni384   1.928       .  S
O365       C1035   1.271       .  A
O366       Ni384   1.901       .  S
O366       C1696   1.271       .  A
Ni367       O370   1.938       .  S
Ni367       O372   1.905       .  S
C368       O1694   1.269       .  A
C368        O378   1.276       .  A
C368        C554   1.473       .  S
O369       Ni385   1.900       .  S
O369       C1703   1.265   1_454  A
O370        C375   1.274       .  A
C371       O1029   1.270       .  A
C371        C509   1.499       .  S
O372        C374   1.270       .  A
O373       Ni384   1.931       .  S
O373       C1692   1.273       .  A
C374       O1708   1.276       .  A
C374        C541   1.478       .  S
C375       O1697   1.268   1_556  A
C375        C634   1.490       .  S
H376        O377   0.966       .  S
O377      Ni1049   1.915   1_545  S
O377      Ni1375   1.900   1_456  S
O378       Ni379   1.937       .  S
Ni379       O383   1.909       .  S
Ni379       O381   1.901       .  S
Ni379      O1027   1.917   1_545  S
Ni379      O1373   1.909       .  S
O380       Ni385   1.940   1_556  S
O380       C1702   1.277   1_455  A
C382        O693   1.271       .  A
C382        O383   1.268   1_565  A
Ni385      O1359   1.908   1_455  S
Ni385      O1041   1.918   1_554  S
O387       Ni393   1.924       .  S
O387        C408   1.272       .  A
O388       Ni411   1.899       .  S
O388        C397   1.267       .  A
O389        H412   0.966       .  S
O389       Ni393   1.914       .  S
O389      Ni1739   1.906       .  S
O389      Ni1069   1.920       .  S
C390        O407   1.268       .  A
C390       O1727   1.271       .  A
C390        C586   1.495       .  S
O391       Ni410   1.926       .  S
O391       C1061   1.272       .  A
O392       Ni410   1.901       .  S
O392       C1722   1.270       .  A
Ni393       O396   1.934       .  S
Ni393       O398   1.903       .  S
C394       O1720   1.270       .  A
C394        O404   1.278       .  A
C394        C538   1.476       .  S
O395       Ni411   1.910       .  S
O395       C1729   1.268   1_455  A
O396        C401   1.270       .  A
C397       O1055   1.271       .  A
C397        C474   1.477       .  S
O398        C400   1.271       .  A
O399       Ni410   1.940       .  S
O399       C1718   1.272       .  A
C400       O1734   1.278       .  A
C400        C557   1.479       .  S
C401       O1723   1.269       .  A
C401        C573   1.494       .  S
H402        O403   0.966       .  S
O403      Ni1075   1.920   1_545  S
O403      Ni1733   1.906   1_455  S
O403       Ni410   1.914       .  S
O404       Ni405   1.946       .  S
Ni405       O409   1.910       .  S
Ni405       O407   1.901       .  S
Ni405      O1053   1.921   1_545  S
Ni405      O1731   1.905       .  S
O406       Ni411   1.948       .  S
O406       C1728   1.278   1_455  A
C408       O1073   1.266       .  A
C408        C490   1.479       .  S
O409       C1072   1.269   1_545  A
Ni411      O1717   1.904   1_455  S
Ni411      O1067   1.922       .  S
O413       Ni421   1.915       .  S
O414       Ni421   1.918   1_554  S
O414        C424   1.282   1_545  A
O415       Ni421   1.921       .  S
O415        C425   1.283   1_545  A
O416        C426   1.283   1_545  A
O417       Ni422   1.914       .  S
O417       C1090   1.280       .  A
O418       C1089   1.281       .  A
O419       Ni422   1.915       .  S
O419        C756   1.280       .  A
O420       Ni422   1.919       .  S
O420       C1087   1.280       .  A
Ni421      Ni754   2.381   1_546  S
Ni422      Ni753   2.384       .  S
C423       O1084   1.280       .  A
C423       C1170   1.496       .  S
C424        O751   1.281       .  A
C424        C522   1.493       .  S
C425       O1082   1.280       .  A
C425       C1106   1.484       .  S
C426       O1081   1.282       .  A
C426       C1122   1.492       .  S
O427       Ni435   1.922       .  S
O427        C437   1.283       .  A
O428       Ni435   1.919       .  S
O428        C438   1.283       .  A
O429       Ni435   1.912       .  S
O429        C439   1.280       .  A
O430       Ni435   1.915       .  S
O430        C440   1.279       .  A
O431       Ni436   1.915       .  S
O431       C1104   1.282   1_545  A
O432       Ni436   1.912       .  S
O432       C1103   1.280   1_545  A
O433       Ni436   1.927       .  S
O433       C1102   1.282   1_545  A
O434       Ni436   1.921       .  S
O434       C1101   1.282   1_545  A
Ni435     Ni1100   2.381       .  S
Ni436     Ni1099   2.384   1_545  S
C437       O1098   1.280       .  A
C437        C445   1.489       .  S
C438       O1097   1.280       .  A
C438        C461   1.490       .  S
C439       O1096   1.282       .  A
C439        C493   1.491       .  S
C440       O1095   1.283       .  A
C440        C477   1.491       .  S
C441       C1106   1.403   1_545  A
C441        C446   1.404       .  A
C441        H448   1.084       .  S
C442       C1089   1.488       .  S
C442       C1105   1.404       .  A
C442        C443   1.417       .  A
C443        C444   1.406       .  A
C443        C450   1.508       .  S
C444        C445   1.405       .  A
C444        H449   1.084       .  S
C445       C1110   1.419       .  A
C446       C1109   1.415   1_545  A
C446        C447   1.508       .  S
C447        H451   1.111       .  S
C447        H452   1.109       .  S
C447        H453   1.111       .  S
C450        H454   1.109       .  S
C450        H455   1.111       .  S
C450        H456   1.111       .  S
C457       C1122   1.406   1_545  A
C457        C462   1.409       .  A
C457        H464   1.084       .  S
C458       C1090   1.490       .  S
C458       C1121   1.406       .  A
C458        C459   1.419       .  A
C459        C460   1.403       .  A
C459        C466   1.509       .  S
C460        C461   1.405       .  A
C460        H465   1.084       .  S
C461       C1126   1.419       .  A
C462       C1125   1.417   1_545  A
C462        C463   1.508       .  S
C463        H467   1.111       .  S
C463        H468   1.111       .  S
C463        H469   1.109       .  S
C466        H470   1.110       .  S
C466        H471   1.110       .  S
C466        H472   1.111       .  S
C473        C474   1.402       .  A
C473        C478   1.406       .  A
C473        H480   1.085       .  S
C474        C475   1.413       .  A
C475        C476   1.399       .  A
C475       C1146   1.509       .  S
C476        C477   1.406       .  A
C476       H1145   1.084       .  S
C477        C478   1.423       .  A
C478        C479   1.508       .  S
C479        H483   1.111       .  S
C479        H484   1.110       .  S
C479       H1149   1.110       .  S
H481       C1140   1.084       .  S
C482       C1139   1.508       .  S
C482       H1150   1.109       .  S
C482        H487   1.111       .  S
C482        H488   1.111       .  S
H485       C1143   1.110       .  S
H486       C1146   1.109       .  S
C489        C490   1.400       .  A
C489        C494   1.401       .  A
C489        H496   1.084       .  S
C490       C1155   1.413       .  A
C491       C1154   1.411       .  A
C491        C492   1.405       .  A
C491        C498   1.505       .  S
C492       C1157   1.409       .  A
C492        H497   1.084       .  S
C493       C1156   1.410       .  A
C493        C494   1.420       .  A
C494        C495   1.509       .  S
C495        H499   1.111       .  S
C495        H500   1.109       .  S
C495        H501   1.111       .  S
C498        H502   1.111       .  S
C498        H503   1.109       .  S
C498        H504   1.111       .  S
C505       C1170   1.408   1_545  A
C505        C510   1.402       .  A
C505        H512   1.083       .  S
C506       C1087   1.483       .  S
C506       C1169   1.400       .  A
C507        C508   1.403       .  A
C507        C514   1.509       .  S
C508        H513   1.082       .  S
C509       C1174   1.426       .  A
C510       C1173   1.414       .  A
C510        C511   1.509       .  S
C511        H515   1.111       .  S
C511        H516   1.109       .  S
C514        H519   1.110       .  S
C514        H520   1.111       .  S
C521        C526   1.408       .  A
C521        H528   1.084       .  S
C522       C1187   1.420       .  A
C523       C1186   1.422       .  A
C523        C524   1.404       .  A
C523        C530   1.510       .  S
C524       C1189   1.406       .  A
C524        H529   1.084       .  S
C525       C1188   1.403       .  A
C526        C527   1.508       .  S
C527        H531   1.111       .  S
C527        H533   1.111       .  S
C530        H534   1.110   1_554  S
C530        H536   1.111       .  S
C537        C538   1.404       .  A
C537       C1206   1.403       .  A
C537        H544   1.084       .  S
C538       C1867   1.415   1_545  A
C539       C1866   1.417   1_565  A
C539       C1204   1.401       .  A
C539        C546   1.509       .  S
C540       C1203   1.401       .  A
C540       C1869   1.402   1_455  A
C540        H545   1.084       .  S
C541       C1868   1.404       .  A
C541        C542   1.415       .  A
C542       C1201   1.403       .  A
C542        C543   1.509       .  S
C543        H547   1.111       .  S
C543       H1212   1.111       .  S
C543        H549   1.109       .  S
C546        H550   1.109       .  S
C546       H1215   1.111       .  S
C546        H552   1.111       .  S
H548       C1207   1.110       .  S
H551       C1210   1.111       .  S
C553       C1882   1.404   1_655  A
C553        C558   1.404       .  A
C553        H560   1.084       .  S
C554       C1881   1.402       .  A
C554       C1219   1.414   1_545  A
C555       C1218   1.414       .  A
C555        C556   1.401       .  A
C555        C562   1.509       .  S
C556        C557   1.404       .  A
C556        H561   1.084       .  S
C557       C2550   1.416       .  A
C558       C2549   1.417   1_545  A
C558        C559   1.509       .  S
C559        H563   1.109       .  S
C559        H564   1.111       .  S
C559        H565   1.111       .  S
C562        H566   1.109       .  S
C562        H567   1.111       .  S
C562        H568   1.111       .  S
C569        C570   1.404       .  A
C569        C574   1.403       .  A
C569        H576   1.084       .  S
C570       C1899   1.421       .  A
C571       C1898   1.423   1_455  A
C571        C572   1.407       .  A
C571        C578   1.509       .  S
C572       C1901   1.404   1_455  A
C572        H577   1.084       .  S
C573       C1900   1.406       .  A
C573        C574   1.421       .  A
C574        C575   1.510       .  S
C575        H579   1.111       .  S
C575        H580   1.110       .  S
C575        H581   1.110       .  S
C578        H582   1.110       .  S
C578        H583   1.110       .  S
C578        H584   1.111       .  S
C585        C586   1.408       .  A
C585        C590   1.403       .  A
C585        H592   1.082       .  S
C586       C1915   1.423       .  A
C587       C1914   1.423       .  A
C587        C588   1.404       .  A
C587        C594   1.509       .  S
C588       C1917   1.402   1_455  A
C588        H593   1.084       .  S
C589       C1916   1.403       .  A
C589        C590   1.415       .  A
C590        C591   1.509       .  S
C591        H595   1.111       .  S
C591        H596   1.110       .  S
C591        H597   1.109       .  S
C594        H598   1.110       .  S
C594        H599   1.110       .  S
C594        H600   1.111       .  S
C601       C1930   1.404   1_455  A
C601        C606   1.405       .  A
C601        H608   1.084       .  S
C602       C1929   1.406       .  A
C602        C603   1.419       .  A
C603        C604   1.404       .  A
C603        C610   1.508       .  S
C604        C605   1.404       .  A
C604        H609   1.084       .  S
C605       C1934   1.418       .  A
C606       C1933   1.416   1_455  A
C606        C607   1.508       .  S
C607        H611   1.111       .  S
C607        H612   1.111       .  S
C607        H613   1.109       .  S
C610        H614   1.110       .  S
C610        H615   1.110       .  S
C610        H616   1.111       .  S
C617       C1946   1.407   1_455  A
C617        C622   1.405       .  A
C617        H624   1.083       .  S
C618       C1945   1.405       .  A
C618        C619   1.418       .  A
C619        C620   1.403       .  A
C619        C626   1.509       .  S
C620        C621   1.405       .  A
C620        H625   1.084       .  S
C621       C1950   1.419       .  A
C622       C1949   1.421   1_455  A
C622        C623   1.509       .  S
C623        H627   1.111       .  S
C623        H628   1.110       .  S
C623        H629   1.110       .  S
C626        H630   1.111       .  S
C626        H631   1.109       .  S
C626        H632   1.111       .  S
C633        C634   1.403       .  A
C633        C638   1.402       .  A
C633        H640   1.084       .  S
C634       C1963   1.415       .  A
C635       C1962   1.421   1_454  A
C635        C636   1.404       .  A
C636       C1965   1.401   1_454  A
C636        H641   1.085       .  S
C637       C1673   1.498       .  S
C637       C1964   1.411       .  A
C637        C638   1.422       .  A
C638        C639   1.510       .  S
C639        H643   1.111       .  S
C639        H644   1.110   1_556  S
C639        H645   1.110       .  S
C642        H646   1.110       .  S
C642        H648   1.111       .  S
C649        C654   1.405       .  A
C649        H656   1.084       .  S
C650       C1674   1.479       .  S
C650       C1979   1.412       .  A
C651       C1978   1.409       .  A
C651        C652   1.401       .  A
C651        C658   1.509       .  S
C652       C1981   1.410       .  A
C652        H657   1.084       .  S
C653       C1980   1.409       .  A
C654        C655   1.508       .  S
C655        H659   1.111       .  S
C655        H660   1.108       .  S
C655        H661   1.111       .  S
C658        H662   1.111       .  S
C658        H663   1.109       .  S
C658        H664   1.111       .  S
O665      Ni1005   1.916       .  S
O665       C2003   1.281   1_455  A
O666       Ni673   1.921       .  S
O666       C2004   1.282   1_455  A
O667       Ni673   1.914       .  S
O667        C677   1.279   1_455  A
O668      Ni1005   1.910       .  S
O668        C678   1.279   1_455  A
O669       Ni674   1.911       .  S
O669       C2006   1.279       .  A
O670      Ni1006   1.912       .  S
O670       C2005   1.280       .  A
O671      Ni1006   1.918       .  S
O671        C676   1.281       .  A
O672       Ni674   1.922       .  S
O672        C675   1.284       .  A
Ni673       O997   1.914       .  S
Ni673      O1000   1.913       .  S
Ni673     Ni2334   2.387   1_455  S
Ni674      O1002   1.912   1_554  S
Ni674      O1003   1.917   1_554  S
Ni674     Ni2333   2.387       .  S
C675       O1993   1.279       .  A
C675        C953   1.493       .  S
C676       O1994   1.283       .  A
C676        C934   1.491       .  S
C677       O1998   1.280       .  A
C677       C2297   1.468       .  S
C678       O1997   1.281       .  A
C678       C2310   1.475       .  S
O679       Ni687   1.916       .  S
O679        C689   1.283       .  A
O680       Ni687   1.917       .  S
O680        C690   1.280       .  A
O681       Ni687   1.920       .  S
O681        C691   1.283       .  A
O682       Ni687   1.915       .  S
O682        C692   1.280       .  A
O683       Ni688   1.918       .  S
O683       C2020   1.282   1_455  A
O684       Ni688   1.919       .  S
O684       C2019   1.281   1_455  A
O685       Ni688   1.910       .  S
O685       C2018   1.282   1_455  A
O686       Ni688   1.911       .  S
O686       C2017   1.278   1_455  A
Ni687     Ni2016   2.383       .  S
Ni688     Ni2015   2.381   1_455  S
C689       O2014   1.278       .  A
C689        C902   1.484       .  S
C690       O2013   1.280       .  A
C690        C921   1.474       .  S
C691       O2012   1.280       .  A
C691        C937   1.492       .  S
C692       O2011   1.283       .  A
C692        C950   1.494       .  S
O693       Ni699   1.918       .  S
O694       Ni717   1.898       .  S
O694       C1035   1.265   1_565  A
O695        H718   0.964       .  S
O695      Ni1031   1.916   1_554  S
O695      Ni2377   1.907   1_554  S
C696        O713   1.266   1_554  A
C696       O2033   1.271       .  A
C696        C985   1.482       .  S
O697       Ni716   1.919       .  S
O698       Ni716   1.898       .  S
O698       C2028   1.270       .  A
Ni699       O702   1.931       .  S
Ni699       O704   1.897       .  S
Ni699      O1027   1.915       .  S
C700       O2026   1.269       .  A
C700        O710   1.277       .  A
C700        C886   1.478       .  S
O701       Ni717   1.900       .  S
O701       C2035   1.264   1_455  A
O702        C707   1.272       .  A
C703       O1026   1.268   1_544  A
C703        C841   1.479   1_554  S
O704        C706   1.269       .  A
O705       Ni716   1.932       .  S
O705       C2024   1.272       .  A
C706       O2040   1.278       .  A
C706        C873   1.480       .  S
C707       O2029   1.264       .  A
C707        C966   1.490       .  S
H708        O709   0.966       .  S
O709      Ni2371   1.906   1_455  S
O709      Ni1048   1.914       .  S
O710       Ni711   1.939       .  S
Ni711       O715   1.904       .  S
Ni711       O713   1.906   1_554  S
Ni711      O2369   1.908   1_554  S
O712       Ni717   1.939       .  S
O712       C2034   1.275   1_455  A
C714        O715   1.267       .  A
C714       C1189   1.496       .  S
Ni716      O1041   1.915   1_554  S
Ni717      O2355   1.905   1_455  S
O719       Ni725   1.917       .  S
O719        C740   1.271       .  A
O720       Ni743   1.907       .  S
O720        C729   1.268   1_565  A
O721        H744   0.966       .  S
O721       Ni725   1.915       .  S
O721      Ni2071   1.902       .  S
C722        O739   1.268       .  A
C722       O2059   1.268       .  A
C722        C918   1.493       .  S
O723       Ni742   1.921       .  S
O724       Ni742   1.900       .  S
O724       C2054   1.271       .  A
Ni725       O728   1.930       .  S
Ni725       O730   1.904       .  S
C726       O2052   1.272       .  A
C726        O736   1.280       .  A
C726        C870   1.483       .  S
O727       Ni743   1.906       .  S
O727       C2061   1.267   1_455  A
O728        C733   1.268       .  A
C729        C806   1.480       .  S
O730        C732   1.271       .  A
O731       Ni742   1.925       .  S
O731       C2050   1.268       .  A
C732       O2066   1.280       .  A
C732        C889   1.487       .  S
C733       O2055   1.267       .  A
C733        C905   1.490       .  S
H734        O735   0.966       .  S
O735      Ni2065   1.911   1_455  S
O735       Ni742   1.915       .  S
O736       Ni737   1.947       .  S
Ni737       O741   1.910       .  S
Ni737       O739   1.909       .  S
Ni737      O2063   1.907       .  S
O738       Ni743   1.944       .  S
O738       C2060   1.279   1_455  A
C740        C822   1.479       .  S
Ni743      O2049   1.905   1_455  S
O745       Ni753   1.920       .  S
O745       C1087   1.282       .  A
O746       Ni753   1.919       .  S
O746        C756   1.281       .  A
O747       Ni753   1.925       .  S
O747        C757   1.284       .  A
O748      Ni1085   1.921       .  S
O748        C758   1.282       .  A
O749       Ni754   1.915       .  S
O750      Ni1086   1.919       .  S
O751       Ni754   1.919       .  S
O752       Ni754   1.916   1_556  S
Ni753      O1080   1.921       .  S
Ni754      O1082   1.914   1_554  S
C755       O1077   1.283       .  A
C756        C854   1.481       .  S
O759       Ni767   1.924       .  S
O759        C769   1.282       .  A
O760       Ni767   1.923       .  S
O760        C770   1.284       .  A
O761       Ni767   1.914       .  S
O761        C771   1.280       .  A
O762       Ni767   1.915       .  S
O762        C772   1.279       .  A
O763       Ni768   1.921       .  S
O764       Ni768   1.923       .  S
O765       Ni768   1.918       .  S
O766       Ni768   1.916       .  S
C769        C777   1.484       .  S
C770        C793   1.494       .  S
C771        C825   1.491       .  S
C772        C809   1.492       .  S
C773        C778   1.406       .  A
C773        H780   1.084       .  S
C774        C775   1.418       .  A
C775        C776   1.407       .  A
C775        C782   1.508       .  S
C776        C777   1.403       .  A
C776        H781   1.084       .  S
C778        C779   1.509       .  S
C779        H783   1.111       .  S
C779        H784   1.109       .  S
C779        H785   1.111       .  S
C782        H786   1.111       .  S
C782        H787   1.109       .  S
C782        H788   1.111       .  S
C789        C794   1.406       .  A
C789        H796   1.084       .  S
C790        C791   1.420       .  A
C791        C792   1.405       .  A
C791        C798   1.509       .  S
C792        C793   1.405       .  A
C792        H797   1.084       .  S
C794        C795   1.508       .  S
C795        H799   1.111       .  S
C795        H800   1.109       .  S
C795        H801   1.111       .  S
C798        H802   1.110       .  S
C798        H803   1.110       .  S
C798        H804   1.111       .  S
C805        C806   1.402   1_565  A
C805        C810   1.408       .  A
C805        H812   1.084       .  S
C806        C807   1.414       .  A
C807        C808   1.401       .  A
C808        C809   1.405   1_545  A
C809        C810   1.423       .  A
C810        C811   1.508       .  S
C811        H815   1.111       .  S
C811        H816   1.111       .  S
C814        H819   1.111       .  S
C814        H820   1.111       .  S
C821        C822   1.402       .  A
C821        C826   1.402       .  A
C821        H828   1.085       .  S
C823        C824   1.411       .  A
C823        C830   1.508       .  S
C824        H829   1.084       .  S
C825        C826   1.421       .  A
C826        C827   1.509       .  S
C827        H831   1.111       .  S
C827        H832   1.109       .  S
C827        H833   1.111       .  S
C830        H834   1.110       .  S
C830        H835   1.111       .  S
C830        H836   1.111       .  S
C837        C842   1.404       .  A
C837        H844   1.084       .  S
C838       C1171   1.422   1_556  A
C839       C1170   1.422       .  A
C839        C840   1.407       .  A
C839        C846   1.508       .  S
C840       C1173   1.404   1_565  A
C840        H845   1.084       .  S
C841       C1172   1.400   1_546  A
C842        C843   1.509       .  S
C843        H847   1.111       .  S
C843        H848   1.109       .  S
C843       H1181   1.110       .  S
C846       H1182   1.110       .  S
C846        H851   1.110       .  S
C846        H852   1.111       .  S
H849       C1175   1.110       .  S
H850       C1178   1.110       .  S
C853       C1186   1.408       .  A
C853        C858   1.407       .  A
C853        H860   1.083       .  S
C854       C1185   1.402       .  A
C855        C856   1.400       .  A
C855        C862   1.509       .  S
C856        H861   1.084       .  S
C857       C1046   1.495       .  S
C857       C1190   1.423       .  A
C858       C1189   1.419       .  A
C858        C859   1.508       .  S
C859        H863   1.111       .  S
C859       H1196   1.108   1_554  S
C859        H865   1.110       .  S
C862        H866   1.111       .  S
C862       H1199   1.109       .  S
C862        H868   1.111       .  S
H864       C1191   1.109       .  S
H867       C1194   1.110       .  S
C869        C870   1.403       .  A
C869        H876   1.084       .  S
C870       C2199   1.417       .  A
C871       C2198   1.417       .  A
C871        C878   1.509       .  S
C872       C2201   1.403   1_455  A
C872        H877   1.084       .  S
C873       C2200   1.403       .  A
C873        C874   1.416   1_565  A
C874        C875   1.510       .  S
C875        H879   1.111       .  S
C875        H881   1.109   1_545  S
C878        H882   1.109       .  S
C878        H884   1.111       .  S
C885       C2214   1.401   1_655  A
C885        C890   1.400       .  A
C885        H892   1.084       .  S
C886       C2213   1.403       .  A
C887        C888   1.402       .  A
C887        C894   1.511       .  S
C888        C889   1.405       .  A
C888        H893   1.084       .  S
C889       C1554   1.418   1_565  A
C890       C1553   1.417       .  A
C890        C891   1.509       .  S
C891        H895   1.110       .  S
C891        H896   1.111       .  S
C891        H897   1.111       .  S
C894        H898   1.110   1_565  S
C894        H899   1.111       .  S
C894        H900   1.111       .  S
C901        C902   1.402       .  A
C901        C906   1.401       .  A
C901        H908   1.084       .  S
C902       C2231   1.417       .  A
C903       C2230   1.424   1_455  A
C903        C904   1.405       .  A
C903        C910   1.509       .  S
C904       C2233   1.401   1_455  A
C904        H909   1.084       .  S
C905       C2232   1.407       .  A
C905        C906   1.422       .  A
C906        C907   1.510       .  S
C907        H911   1.111       .  S
C907        H912   1.110       .  S
C907        H913   1.110       .  S
C910        H914   1.110       .  S
C910        H915   1.110       .  S
C910        H916   1.111       .  S
C917        C918   1.410       .  A
C917        C922   1.405       .  A
C917        H924   1.084       .  S
C918       C2247   1.425       .  A
C919       C2246   1.416       .  A
C919        C920   1.399       .  A
C919        C926   1.511       .  S
C920       C2249   1.407   1_455  A
C920        H925   1.083       .  S
C921       C2248   1.398       .  A
C921        C922   1.412       .  A
C922        C923   1.508       .  S
C923        H927   1.111       .  S
C923        H928   1.111       .  S
C923        H929   1.109       .  S
C926        H930   1.110       .  S
C926        H931   1.109       .  S
C926        H932   1.111       .  S
C933       C2262   1.405   1_455  A
C933        C938   1.406       .  A
C933        H940   1.084       .  S
C934       C2261   1.405       .  A
C934        C935   1.419       .  A
C935        C936   1.406       .  A
C935        C942   1.509       .  S
C936        C937   1.406       .  A
C936        H941   1.084       .  S
C937       C2266   1.419       .  A
C938       C2265   1.418   1_455  A
C938        C939   1.508       .  S
C939        H943   1.111       .  S
C939        H944   1.111       .  S
C939        H945   1.110       .  S
C942        H946   1.109       .  S
C942        H947   1.111       .  S
C942        H948   1.111       .  S
C949       C2278   1.404   1_455  A
C949        C954   1.404       .  A
C949        H956   1.084       .  S
C950       C2277   1.406       .  A
C950        C951   1.420       .  A
C951        C952   1.405       .  A
C951        C958   1.509       .  S
C952        C953   1.406       .  A
C952        H957   1.084       .  S
C953       C2282   1.420       .  A
C954       C2281   1.416   1_455  A
C954        C955   1.508       .  S
C955        H959   1.111       .  S
C955        H960   1.110       .  S
C955        H961   1.109       .  S
C958        H962   1.110       .  S
C958        H963   1.110       .  S
C958        H964   1.111       .  S
C965        C966   1.409       .  A
C965        C970   1.400       .  A
C965        H972   1.084       .  S
C966       C2295   1.422       .  A
C967       C2294   1.419   1_455  A
C967        C968   1.405       .  A
C967       C1306   1.508       .  S
C968       C2297   1.401   1_455  A
C968        H973   1.084       .  S
C969       C2005   1.472       .  S
C969       C2296   1.400       .  A
C969        C970   1.410       .  A
C970        C971   1.509       .  S
C971        H975   1.111       .  S
C971        H976   1.109       .  S
C971        H977   1.111       .  S
C974       C1299   1.508       .  S
C974        H978   1.110       .  S
C974       H1311   1.108       .  S
C974        H980   1.111       .  S
H979       C1306   1.110       .  S
C981       C1314   1.401       .  A
C981        C986   1.404       .  A
C981        H988   1.085       .  S
C982       C2006   1.466       .  S
C982       C1313   1.400   1_554  A
C982       C2311   1.408       .  A
C983       C2310   1.411   1_455  A
C983        C984   1.400       .  A
C983        C990   1.510       .  S
C984       C2313   1.409   1_455  A
C984        H989   1.083       .  S
C985       C2312   1.408       .  A
C985       C1318   1.418   1_554  A
C986       C1317   1.422       .  A
C986        C987   1.509       .  S
C987        H991   1.111       .  S
C987        H992   1.109       .  S
C987        H993   1.110       .  S
C990        H994   1.111       .  S
C990        H995   1.109       .  S
C990        H996   1.111       .  S
O997       C2335   1.280   1_455  A
O998      Ni1005   1.920   1_556  S
O998       C2336   1.283   1_455  A
O999      Ni1005   1.911   1_556  S
O999       C1009   1.279   1_455  A
O1000      C1010   1.280   1_455  A
O1001     Ni1006   1.910       .  S
O1001      C2338   1.279       .  A
O1002      C2337   1.280       .  A
O1003      C1008   1.281       .  A
O1004     Ni1006   1.921       .  S
O1004      C1007   1.284       .  A
Ni1005    Ni2002   2.387   1_454  S
Ni1006    Ni2001   2.386       .  S
C1007      O2325   1.280       .  A
C1007      C1285   1.494       .  S
C1008      O2326   1.282       .  A
C1008      C1266   1.484       .  S
C1009      O2330   1.282       .  A
C1009      C2629   1.475       .  S
C1010      O2329   1.279       .  A
C1010      C2642   1.467       .  S
O1011     Ni1019   1.918       .  S
O1011      C1021   1.283       .  A
O1012     Ni1019   1.915       .  S
O1012      C1022   1.280       .  A
O1013     Ni1019   1.916       .  S
O1013      C1023   1.281       .  A
O1014     Ni1019   1.914       .  S
O1014      C1024   1.280       .  A
O1015     Ni1020   1.922       .  S
O1015      C2352   1.283   1_455  A
O1016     Ni1020   1.918       .  S
O1016      C2351   1.281   1_455  A
O1017     Ni1020   1.915       .  S
O1017      C2350   1.281   1_455  A
O1018     Ni1020   1.918       .  S
O1018      C2349   1.280   1_455  A
Ni1019    Ni2348   2.383       .  S
Ni1020    Ni2347   2.382   1_455  S
C1021      O2346   1.279       .  A
C1021      C1234   1.491       .  S
C1022      O2345   1.281       .  A
C1022      C1253   1.476       .  S
C1023      O2344   1.281       .  A
C1023      C1269   1.487       .  S
C1024      O2343   1.283       .  A
C1024      C1282   1.495       .  S
O1025     Ni1031   1.919       .  S
O1026     Ni1049   1.901       .  S
O1027      H1050   0.964       .  S
O1027     Ni2045   1.903       .  S
C1028      O1045   1.265       .  A
C1028      O2365   1.273       .  A
C1028      C1317   1.490       .  S
O1029     Ni1048   1.924       .  S
O1030     Ni1048   1.895       .  S
O1030      C2360   1.267       .  A
Ni1031     O1034   1.934       .  S
Ni1031     O1036   1.903       .  S
C1032      O2358   1.271       .  A
C1032      O1042   1.277       .  A
C1032      C1218   1.477       .  S
O1033     Ni1049   1.903   1_554  S
O1033      C2367   1.266   1_454  A
O1034      C1039   1.272       .  A
C1035      C1173   1.485       .  S
O1036      C1038   1.270       .  A
O1037     Ni1048   1.936       .  S
O1037      C2356   1.274       .  A
C1038      O2372   1.277       .  A
C1038      C1205   1.474       .  S
C1039      O2361   1.264   1_556  A
C1039      C1298   1.491       .  S
H1040      O1041   0.966       .  S
O1041     Ni2039   1.904   1_455  S
O1042     Ni1043   1.942       .  S
Ni1043     O1047   1.901       .  S
Ni1043     O1045   1.903       .  S
Ni1043     O2037   1.907       .  S
O1044     Ni1049   1.939       .  S
O1044      C2366   1.277   1_455  A
C1046      O1047   1.266       .  A
Ni1049     O2023   1.907   1_456  S
O1051     Ni1057   1.915       .  S
O1051      C1072   1.270       .  A
O1052     Ni1075   1.903       .  S
O1052      C1061   1.266   1_565  A
O1053      H1076   0.966       .  S
O1053     Ni1057   1.914       .  S
O1053     Ni2403   1.904       .  S
C1054      O1071   1.266       .  A
C1054      O2391   1.271       .  A
C1054      C1250   1.493       .  S
O1055     Ni1074   1.921       .  S
O1056     Ni1074   1.896       .  S
O1056      C2386   1.269       .  A
Ni1057     O1060   1.931       .  S
Ni1057     O1062   1.899       .  S
C1058      O2384   1.271       .  A
C1058      O1068   1.277       .  A
C1058      C1202   1.480       .  S
O1059     Ni1075   1.902       .  S
O1059      C2393   1.267   1_455  A
O1060      C1065   1.269       .  A
C1061      C1138   1.477       .  S
O1062      C1064   1.270       .  A
O1063     Ni1074   1.934       .  S
O1063      C2382   1.270       .  A
C1064      O2398   1.278       .  A
C1064      C1221   1.477       .  S
C1065      O2387   1.268       .  A
C1065      C1237   1.491       .  S
H1066      O1067   0.966       .  S
O1067     Ni2397   1.904   1_455  S
O1067     Ni1074   1.915       .  S
O1068     Ni1069   1.941       .  S
Ni1069     O1073   1.904       .  S
Ni1069     O1071   1.902       .  S
Ni1069     O2395   1.906       .  S
O1070     Ni1075   1.941       .  S
O1070      C2392   1.278   1_455  A
C1072      C1154   1.475   1_565  S
Ni1075     O2381   1.902   1_455  S
O1077     Ni1085   1.922   1_556  S
O1078     Ni1085   1.925       .  S
O1078      C1088   1.284       .  A
O1079     Ni1085   1.920   1_556  S
O1079      C1089   1.282       .  A
O1080      C1090   1.283       .  A
O1081     Ni1086   1.923       .  S
O1083     Ni1086   1.919       .  S
O1084     Ni1086   1.919       .  S
C1088      C1186   1.497       .  S
O1091     Ni1099   1.920       .  S
O1091      C1101   1.281       .  A
O1092     Ni1099   1.923       .  S
O1092      C1102   1.283       .  A
O1093     Ni1099   1.916       .  S
O1093      C1103   1.281       .  A
O1094     Ni1099   1.916       .  S
O1094      C1104   1.280       .  A
O1095     Ni1100   1.916       .  S
O1096     Ni1100   1.921       .  S
O1097     Ni1100   1.915       .  S
O1098     Ni1100   1.915       .  S
C1101      C1109   1.485       .  S
C1102      C1125   1.491       .  S
C1103      C1157   1.485   1_565  S
C1104      C1141   1.489       .  S
C1105      C1110   1.405       .  A
C1105      H1112   1.084       .  S
C1106      C1107   1.417       .  A
C1107      C1108   1.407       .  A
C1107      C1114   1.508       .  S
C1108      C1109   1.405       .  A
C1108      H1113   1.084       .  S
C1110      C1111   1.509       .  S
C1111      H1115   1.111       .  S
C1111      H1116   1.111       .  S
C1111      H1117   1.109       .  S
C1114      H1118   1.111       .  S
C1114      H1119   1.109       .  S
C1114      H1120   1.111       .  S
C1121      C1126   1.406       .  A
C1121      H1128   1.084       .  S
C1122      C1123   1.418       .  A
C1123      C1124   1.407       .  A
C1123      C1130   1.508       .  S
C1124      C1125   1.405       .  A
C1124      H1129   1.084       .  S
C1126      C1127   1.509       .  S
C1127      H1131   1.111       .  S
C1127      H1132   1.109       .  S
C1127      H1133   1.111       .  S
C1130      H1134   1.109       .  S
C1130      H1135   1.111       .  S
C1130      H1136   1.111       .  S
C1137      C1138   1.402   1_565  A
C1137      C1142   1.407       .  A
C1137      H1144   1.084       .  S
C1138      C1139   1.411       .  A
C1139      C1140   1.400       .  A
C1140      C1141   1.406   1_545  A
C1141      C1142   1.422       .  A
C1142      C1143   1.508       .  S
C1143      H1147   1.111       .  S
C1143      H1148   1.111       .  S
C1146      H1151   1.111       .  S
C1146      H1152   1.111       .  S
C1153      C1154   1.401   1_565  A
C1153      C1158   1.401       .  A
C1153      H1160   1.085       .  S
C1155      C1156   1.408       .  A
C1155      C1162   1.508       .  S
C1156      H1161   1.084       .  S
C1157      C1158   1.418   1_545  A
C1158      C1159   1.509       .  S
C1159      H1163   1.111       .  S
C1159      H1164   1.109       .  S
C1159      H1165   1.111       .  S
C1162      H1166   1.111       .  S
C1162      H1167   1.110       .  S
C1162      H1168   1.111       .  S
C1169      C1174   1.404       .  A
C1169      H1176   1.085       .  S
C1171      C1172   1.403       .  A
C1171      C1178   1.508       .  S
C1172      H1177   1.083       .  S
C1174      C1175   1.510       .  S
C1175      H1179   1.111       .  S
C1175      H1180   1.111       .  S
C1178      H1183   1.110   1_554  S
C1178      H1184   1.111       .  S
C1185      C1190   1.407       .  A
C1185      H1192   1.084       .  S
C1187      C1188   1.404       .  A
C1187      C1194   1.509       .  S
C1188      H1193   1.084       .  S
C1190      C1191   1.509       .  S
C1191      H1195   1.111       .  S
C1191      H1197   1.110       .  S
C1194      H1198   1.109       .  S
C1194      H1200   1.111       .  S
C1201      C1202   1.405       .  A
C1201      H1208   1.084       .  S
C1202      C2531   1.416       .  A
C1203      C2530   1.416       .  A
C1203      C1210   1.509       .  S
C1204      C2533   1.403   1_455  A
C1204      H1209   1.084       .  S
C1205      C2532   1.402       .  A
C1205      C1206   1.415   1_565  A
C1206      C1207   1.509       .  S
C1207      H1211   1.111       .  S
C1207      H1213   1.110       .  S
C1210      H1214   1.109       .  S
C1210      H1216   1.111       .  S
C1217      C2546   1.401   1_655  A
C1217      C1222   1.403       .  A
C1217      H1224   1.084       .  S
C1218      C2545   1.405       .  A
C1219      C1220   1.402       .  A
C1219      C1226   1.509       .  S
C1220      C1221   1.405       .  A
C1220      H1225   1.084       .  S
C1221      C1886   1.416   1_565  A
C1222      C1885   1.417       .  A
C1222      C1223   1.509       .  S
C1223      H1227   1.109       .  S
C1223      H1228   1.111       .  S
C1223      H1229   1.111       .  S
C1226      H1230   1.109       .  S
C1226      H1231   1.111       .  S
C1226      H1232   1.111       .  S
C1233      C1234   1.405       .  A
C1233      C1238   1.402       .  A
C1233      H1240   1.084       .  S
C1234      C2563   1.420       .  A
C1235      C2562   1.421   1_455  A
C1235      C1236   1.406       .  A
C1235      C1242   1.509       .  S
C1236      C2565   1.406   1_455  A
C1236      H1241   1.084       .  S
C1237      C2564   1.405       .  A
C1237      C1238   1.421       .  A
C1238      C1239   1.510       .  S
C1239      H1243   1.111       .  S
C1239      H1244   1.110       .  S
C1239      H1245   1.110       .  S
C1242      H1246   1.110       .  S
C1242      H1247   1.110       .  S
C1242      H1248   1.111       .  S
C1249      C1250   1.409       .  A
C1249      C1254   1.405       .  A
C1249      H1256   1.084       .  S
C1250      C2579   1.423       .  A
C1251      C2578   1.423       .  A
C1251      C1252   1.403       .  A
C1251      C1258   1.509       .  S
C1252      C2581   1.399   1_455  A
C1252      H1257   1.085       .  S
C1253      C2580   1.399       .  A
C1253      C1254   1.412       .  A
C1254      C1255   1.508       .  S
C1255      H1259   1.111       .  S
C1255      H1260   1.111       .  S
C1255      H1261   1.110       .  S
C1258      H1262   1.109       .  S
C1258      H1263   1.111       .  S
C1258      H1264   1.111       .  S
C1265      C2594   1.405   1_455  A
C1265      C1270   1.405       .  A
C1265      H1272   1.084       .  S
C1266      C2593   1.404       .  A
C1266      C1267   1.416       .  A
C1267      C1268   1.405       .  A
C1267      C1274   1.508       .  S
C1268      C1269   1.406       .  A
C1268      H1273   1.084       .  S
C1269      C2598   1.417       .  A
C1270      C2597   1.419   1_455  A
C1270      C1271   1.508       .  S
C1271      H1275   1.111       .  S
C1271      H1276   1.110       .  S
C1271      H1277   1.110       .  S
C1274      H1278   1.109       .  S
C1274      H1279   1.110       .  S
C1274      H1280   1.111       .  S
C1281      C2610   1.407   1_455  A
C1281      C1286   1.406       .  A
C1281      H1288   1.084       .  S
C1282      C2609   1.407       .  A
C1282      C1283   1.420       .  A
C1283      C1284   1.404       .  A
C1283      C1290   1.509       .  S
C1284      C1285   1.405       .  A
C1284      H1289   1.084       .  S
C1285      C2614   1.420       .  A
C1286      C2613   1.421   1_455  A
C1286      C1287   1.509       .  S
C1287      H1291   1.111       .  S
C1287      H1292   1.111       .  S
C1287      H1293   1.110       .  S
C1290      H1294   1.110       .  S
C1290      H1295   1.110       .  S
C1290      H1296   1.111       .  S
C1297      C1298   1.410       .  A
C1297      C1302   1.401       .  A
C1297      H1304   1.083       .  S
C1298      C2627   1.422   1_556  A
C1299      C2626   1.422   1_454  A
C1299      C1300   1.405       .  A
C1300      C2629   1.401   1_454  A
C1300      H1305   1.084       .  S
C1301      C2337   1.471       .  S
C1301      C2628   1.400   1_556  A
C1301      C1302   1.410       .  A
C1302      C1303   1.509       .  S
C1303      H1307   1.111       .  S
C1303      H1308   1.109       .  S
C1303      H1309   1.111       .  S
C1306      H1310   1.111       .  S
C1306      H1312   1.111       .  S
C1313      C1318   1.403       .  A
C1313      H1320   1.084       .  S
C1314      C2338   1.470       .  S
C1314      C2643   1.409       .  A
C1315      C2642   1.408   1_455  A
C1315      C1316   1.400       .  A
C1315      C1322   1.508       .  S
C1316      C2645   1.407   1_455  A
C1316      H1321   1.084       .  S
C1317      C2644   1.410       .  A
C1318      C1319   1.508       .  S
C1319      H1323   1.111       .  S
C1319      H1324   1.107       .  S
C1319      H1325   1.110       .  S
C1322      H1326   1.111       .  S
C1322      H1327   1.109       .  S
C1322      H1328   1.111       .  S
O1329     Ni1669   1.919   1_554  S
O1330     Ni1337   1.917       .  S
O1331     Ni1337   1.918       .  S
O1331      C1341   1.281       .  A
O1332     Ni1669   1.922   1_554  S
O1332      C1342   1.281       .  A
O1333     Ni1338   1.915       .  S
O1334     Ni1670   1.915       .  S
O1335     Ni1670   1.916       .  S
O1335      C1340   1.280       .  A
O1336     Ni1338   1.919       .  S
O1336      C1339   1.282       .  A
Ni1337     O1661   1.912       .  S
Ni1337     O1664   1.917       .  S
Ni1338     O1666   1.912   1_554  S
Ni1338     O1667   1.917   1_554  S
C1339      C1617   1.495       .  S
C1340      C1598   1.483       .  S
O1343     Ni1351   1.912       .  S
O1343      C1353   1.282       .  A
O1344     Ni1351   1.913       .  S
O1344      C1354   1.279   1_655  A
O1345     Ni1351   1.916       .  S
O1345      C1355   1.282   1_655  A
O1346     Ni1351   1.917       .  S
O1346      C1356   1.280       .  A
O1347     Ni1352   1.917       .  S
O1348     Ni1352   1.914       .  S
O1349     Ni1352   1.915       .  S
O1350     Ni1352   1.916       .  S
C1353      C1566   1.491       .  S
C1354      C1585   1.479       .  S
C1355      C1601   1.484       .  S
C1356      C1614   1.494       .  S
O1357     Ni1363   1.920       .  S
O1357      C2374   1.271       .  A
O1358     Ni1381   1.895       .  S
O1358      C1699   1.266       .  A
O1359      H1382   0.963       .  S
O1359     Ni1695   1.914   1_554  S
O1359     Ni2039   1.916   1_554  S
C1360      O1377   1.265   1_454  A
C1360      C1649   1.494       .  S
O1361     Ni1380   1.918       .  S
O1361      C2031   1.268       .  A
O1362     Ni1380   1.894       .  S
Ni1363     O1366   1.930       .  S
Ni1363     O1368   1.899       .  S
Ni1363     O1691   1.917       .  S
C1364      O1374   1.278   1_455  A
C1364      C1550   1.481       .  S
O1365     Ni1381   1.906       .  S
O1366      C1371   1.271       .  A
C1367      O1690   1.268   1_554  A
C1367      O2025   1.268       .  A
C1367      C1505   1.489   1_554  S
O1368      C1370   1.269       .  A
O1369     Ni1380   1.933       .  S
C1370      C1537   1.480       .  S
C1371      C1630   1.480       .  S
H1372      O1373   0.966       .  S
O1373     Ni2045   1.918   1_545  S
O1373     Ni1712   1.918       .  S
O1374     Ni1375   1.946       .  S
Ni1375     O1379   1.899       .  S
Ni1375     O1377   1.902   1_554  S
Ni1375     O2023   1.919   1_545  S
O1376     Ni1381   1.946       .  S
C1378      O2353   1.271       .  A
C1378      O1379   1.265   1_566  A
C1378      C1853   1.484       .  S
Ni1380     O1705   1.913   1_554  S
Ni1381     O2037   1.917       .  S
O1383     Ni1389   1.911       .  S
O1383      C1404   1.270       .  A
O1384     Ni1407   1.900       .  S
O1384      C1393   1.267       .  A
O1385      H1408   0.966       .  S
O1385     Ni1389   1.913       .  S
O1385     Ni2065   1.918       .  S
C1386      O1403   1.269   1_455  A
C1386      C1582   1.496       .  S
O1387     Ni1406   1.925       .  S
O1387      C2057   1.271       .  A
O1388     Ni1406   1.901       .  S
Ni1389     O1392   1.926       .  S
Ni1389     O1394   1.892       .  S
C1390      O1400   1.276   1_455  A
C1390      C1534   1.478       .  S
O1391     Ni1407   1.908       .  S
O1392      C1397   1.267       .  A
C1393      O2051   1.269       .  A
C1393      C1470   1.476       .  S
O1394      C1396   1.268       .  A
O1395     Ni1406   1.937       .  S
C1396      C1553   1.476       .  S
C1397      C1569   1.484       .  S
H1398      O1399   0.966       .  S
O1399     Ni2071   1.914   1_545  S
O1399     Ni1406   1.913       .  S
O1400     Ni1401   1.939       .  S
Ni1401     O1405   1.905       .  S
Ni1401     O1403   1.907       .  S
Ni1401     O2049   1.923   1_545  S
O1402     Ni1407   1.939       .  S
C1404      O2069   1.271       .  A
C1404      C1486   1.487       .  S
O1405      C2068   1.268   1_545  A
Ni1407     O2063   1.922       .  S
O1409     Ni1417   1.910       .  S
O1409      C1751   1.281   1_545  A
O1410     Ni1417   1.910       .  S
O1410      C1420   1.279   1_545  A
O1411     Ni1417   1.922       .  S
O1411      C1421   1.284   1_545  A
O1412     Ni1749   1.921   1_554  S
O1412      C1422   1.283   1_545  A
O1413     Ni1418   1.915   1_554  S
O1413      C2086   1.280       .  A
O1414     Ni1750   1.916       .  S
O1414      C2085   1.280       .  A
O1415     Ni1418   1.918       .  S
O1415      C2416   1.282       .  A
O1416     Ni1418   1.920       .  S
O1416      C2083   1.281       .  A
Ni1417     O1744   1.920       .  S
Ni1417    Ni2414   2.381   1_545  S
Ni1418     O1746   1.913       .  S
Ni1418    Ni2413   2.386       .  S
C1419      O1741   1.281   1_565  A
C1419      O2080   1.280       .  A
C1419      C2166   1.491       .  S
C1420      O2411   1.281       .  A
C1420      C1518   1.479       .  S
C1421      O2078   1.279       .  A
C1421      C2102   1.498       .  S
C1422      O2077   1.280       .  A
C1422      C2118   1.490       .  S
O1423     Ni1431   1.921       .  S
O1423      C1433   1.283       .  A
O1424     Ni1431   1.917       .  S
O1424      C1434   1.282       .  A
O1425     Ni1431   1.912       .  S
O1425      C1435   1.280       .  A
O1426     Ni1431   1.909       .  S
O1426      C1436   1.278       .  A
O1427     Ni1432   1.917       .  S
O1427      C2100   1.283   1_545  A
O1428     Ni1432   1.919       .  S
O1428      C2099   1.282   1_545  A
O1429     Ni1432   1.918       .  S
O1429      C2098   1.280   1_545  A
O1430     Ni1432   1.916       .  S
O1430      C2097   1.280   1_545  A
Ni1431    Ni2096   2.386       .  S
Ni1432    Ni2095   2.379   1_545  S
C1433      O2094   1.280       .  A
C1433      C1441   1.486       .  S
C1434      O2093   1.280       .  A
C1434      C1457   1.483       .  S
C1435      O2092   1.281       .  A
C1435      C1489   1.473       .  S
C1436      O2091   1.283       .  A
C1436      C1473   1.489       .  S
C1437      C2102   1.407   1_545  A
C1437      C1442   1.405       .  A
C1437      H1444   1.083       .  S
C1438      C2085   1.487       .  S
C1438      C2101   1.405       .  A
C1438      C1439   1.417       .  A
C1439      C1440   1.405       .  A
C1439      C1446   1.508       .  S
C1440      C1441   1.404       .  A
C1440      H1445   1.084       .  S
C1441      C2106   1.417       .  A
C1442      C2105   1.421   1_545  A
C1442      C1443   1.509       .  S
C1443      H1447   1.111       .  S
C1443      H1448   1.110       .  S
C1443      H1449   1.110       .  S
C1446      H1450   1.111       .  S
C1446      H1451   1.109       .  S
C1446      H1452   1.111       .  S
C1453      C2118   1.405   1_545  A
C1453      C1458   1.406       .  A
C1453      H1460   1.084       .  S
C1454      C2086   1.484       .  S
C1454      C2117   1.405       .  A
C1454      C1455   1.416       .  A
C1455      C1456   1.403       .  A
C1455      C1462   1.508       .  S
C1456      C1457   1.404       .  A
C1456      H1461   1.084       .  S
C1457      C2122   1.416       .  A
C1458      C2121   1.419   1_545  A
C1458      C1459   1.508       .  S
C1459      H1463   1.111       .  S
C1459      H1464   1.110       .  S
C1459      H1465   1.110       .  S
C1462      H1466   1.111       .  S
C1462      H1467   1.109       .  S
C1462      H1468   1.111       .  S
C1469      C1470   1.400       .  A
C1469      C1474   1.402       .  A
C1469      H1476   1.085       .  S
C1470      C1471   1.414       .  A
C1471      C1472   1.403       .  A
C1471      C2142   1.509       .  S
C1472      C1473   1.407       .  A
C1472      H2141   1.084       .  S
C1473      C1474   1.422       .  A
C1474      C1475   1.509       .  S
C1475      H1479   1.111       .  S
C1475      H1480   1.110       .  S
C1475      H2145   1.110       .  S
H1477      C2136   1.083       .  S
C1478      C2135   1.510       .  S
C1478      H2146   1.109       .  S
C1478      H1483   1.110       .  S
C1478      H1484   1.111       .  S
H1481      C2139   1.110       .  S
H1482      C2142   1.109       .  S
C1485      C1486   1.409       .  A
C1485      C1490   1.400       .  A
C1485      H1492   1.084       .  S
C1486      C2151   1.417       .  A
C1487      C2150   1.411   1_545  A
C1487      C1488   1.406       .  A
C1487      C1494   1.508       .  S
C1488      C2153   1.410   1_545  A
C1488      H1493   1.084       .  S
C1489      C2152   1.403       .  A
C1489      C1490   1.410       .  A
C1490      C1491   1.509       .  S
C1491      H1495   1.111       .  S
C1491      H1496   1.110       .  S
C1491      H1497   1.109       .  S
C1494      H1498   1.111       .  S
C1494      H1499   1.110       .  S
C1494      H1500   1.111       .  S
C1501      C2166   1.404   1_544  A
C1501      C1506   1.397       .  A
C1501      H1508   1.083       .  S
C1502      C2083   1.475       .  S
C1502      C2165   1.400   1_556  A
C1502      C1835   1.411       .  A
C1503      C1834   1.422       .  A
C1503      C1504   1.403       .  A
C1503      C1510   1.509       .  S
C1504      C1837   1.402       .  A
C1504      H1509   1.083       .  S
C1505      C1836   1.408       .  A
C1505      C2170   1.423   1_556  A
C1506      C2169   1.421       .  A
C1506      C1507   1.512       .  S
C1507      H1511   1.111       .  S
C1507      H1512   1.110       .  S
C1507      H1845   1.110   1_554  S
C1510      H1846   1.110       .  S
C1510      H1515   1.110       .  S
C1510      H1516   1.111       .  S
H1513      C1839   1.111       .  S
H1514      C1842   1.109       .  S
C1517      C1850   1.402   1_544  A
C1517      C1522   1.405       .  A
C1517      H1524   1.084       .  S
C1518      C1849   1.405   1_565  A
C1518      C2183   1.411       .  A
C1519      C2182   1.414       .  A
C1519      C1520   1.400       .  A
C1519      C1526   1.510       .  S
C1520      C2185   1.409       .  A
C1520      H1525   1.083       .  S
C1521      C1710   1.494       .  S
C1521      C2184   1.412       .  A
C1521      C1854   1.419   1_565  A
C1522      C1853   1.419   1_544  A
C1522      C1523   1.509       .  S
C1523      H1527   1.111       .  S
C1523      H1860   1.109       .  S
C1523      H1529   1.110       .  S
C1526      H1530   1.111       .  S
C1526      H1863   1.109       .  S
C1526      H1532   1.111       .  S
H1528      C1855   1.110       .  S
H1531      C1858   1.109       .  S
C1533      C1534   1.404   1_655  A
C1533      C2202   1.401       .  A
C1533      H1540   1.084       .  S
C1535      C2200   1.404       .  A
C1535      C1542   1.509       .  S
C1536      C2199   1.406       .  A
C1536      H1541   1.084       .  S
C1537      C1538   1.418       .  A
C1538      C2197   1.405       .  A
C1538      C1539   1.509       .  S
C1539      H1543   1.111       .  S
C1539      H2208   1.111       .  S
C1539      H1545   1.109       .  S
C1542      H1546   1.109       .  S
C1542      H2211   1.111       .  S
C1542      H1548   1.111       .  S
H1544      C2203   1.111       .  S
H1547      C2206   1.111       .  S
C1549      C1554   1.404       .  A
C1549      H1556   1.084       .  S
C1550      C2215   1.416   1_545  A
C1551      C2214   1.416       .  A
C1551      C1552   1.402       .  A
C1551      C1558   1.510       .  S
C1552      C1553   1.403   1_455  A
C1552      H1557   1.084       .  S
C1554      C1555   1.508       .  S
C1555      H1559   1.110   1_545  S
C1555      H1560   1.111       .  S
C1555      H1561   1.111       .  S
C1558      H1562   1.109       .  S
C1558      H1563   1.111       .  S
C1558      H1564   1.111       .  S
C1565      C1566   1.406       .  A
C1565      C1570   1.400       .  A
C1565      H1572   1.084       .  S
C1567      C1568   1.408       .  A
C1567      C1574   1.508       .  S
C1568      H1573   1.084       .  S
C1569      C1570   1.418       .  A
C1570      C1571   1.511       .  S
C1571      H1575   1.111       .  S
C1571      H1576   1.109       .  S
C1571      H1577   1.111       .  S
C1574      H1578   1.110       .  S
C1574      H1579   1.110       .  S
C1574      H1580   1.111       .  S
C1581      C1582   1.408   1_655  A
C1581      C1586   1.404       .  A
C1581      H1588   1.083       .  S
C1583      C1584   1.404       .  A
C1583      C1590   1.509       .  S
C1584      H1589   1.085       .  S
C1585      C1586   1.413   1_455  A
C1586      C1587   1.507       .  S
C1587      H1591   1.111       .  S
C1587      H1592   1.110       .  S
C1587      H1593   1.109       .  S
C1590      H1594   1.110       .  S
C1590      H1595   1.111       .  S
C1590      H1596   1.111       .  S
C1597      C1602   1.404       .  A
C1597      H1604   1.084       .  S
C1598      C1599   1.416       .  A
C1599      C1600   1.403       .  A
C1599      C1606   1.508       .  S
C1600      C1601   1.404   1_655  A
C1600      H1605   1.084       .  S
C1602      C1603   1.509       .  S
C1603      H1607   1.111       .  S
C1603      H1608   1.110       .  S
C1603      H1609   1.110       .  S
C1606      H1610   1.109       .  S
C1606      H1611   1.110       .  S
C1606      H1612   1.111       .  S
C1613      C1618   1.404       .  A
C1613      H1620   1.084       .  S
C1614      C1615   1.420       .  A
C1615      C1616   1.406       .  A
C1615      C1622   1.509       .  S
C1616      C1617   1.407       .  A
C1616      H1621   1.084       .  S
C1618      C1619   1.508       .  S
C1619      H1623   1.111       .  S
C1619      H1624   1.110       .  S
C1619      H1625   1.108       .  S
C1622      H1626   1.110       .  S
C1622      H1627   1.108       .  S
C1622      H1628   1.111       .  S
C1629      C1630   1.401       .  A
C1629      C1634   1.401       .  A
C1629      H1636   1.085       .  S
C1631      C1632   1.407       .  A
C1631      C1970   1.508       .  S
C1632      H1637   1.084       .  S
C1633      C1634   1.422       .  A
C1634      C1635   1.509       .  S
C1635      H1639   1.111       .  S
C1635      H1640   1.110       .  S
C1635      H1641   1.110       .  S
C1638      C1963   1.507       .  S
C1638      H1642   1.110   1_556  S
C1638      H1975   1.110       .  S
C1638      H1644   1.111       .  S
H1643      C1970   1.108       .  S
C1645      C1978   1.403   1_655  A
C1645      C1650   1.407       .  A
C1645      H1652   1.083       .  S
C1646      C1977   1.403   1_454  A
C1647      C1648   1.402       .  A
C1647      C1654   1.506       .  S
C1648      H1653   1.084       .  S
C1649      C1982   1.422   1_454  A
C1650      C1981   1.420   1_655  A
C1650      C1651   1.508       .  S
C1651      H1655   1.111       .  S
C1651      H1656   1.110       .  S
C1651      H1657   1.110       .  S
C1654      H1658   1.111       .  S
C1654      H1659   1.109       .  S
C1654      H1660   1.111       .  S
O1662     Ni1669   1.925       .  S
O1663     Ni1669   1.921       .  S
O1663      C1673   1.283       .  A
O1664      C1674   1.281       .  A
O1665     Ni1670   1.913       .  S
O1667      C1672   1.281       .  A
O1668     Ni1670   1.922       .  S
O1668      C1671   1.284       .  A
C1671      C1949   1.499       .  S
C1672      C1930   1.484       .  S
O1675     Ni1683   1.920       .  S
O1675      C1685   1.284       .  A
O1676     Ni1683   1.919       .  S
O1676      C1686   1.281       .  A
O1677     Ni1683   1.920       .  S
O1677      C1687   1.281       .  A
O1678     Ni1683   1.919       .  S
O1678      C1688   1.280       .  A
O1679     Ni1684   1.916       .  S
O1680     Ni1684   1.920       .  S
O1681     Ni1684   1.912       .  S
O1682     Ni1684   1.912       .  S
C1685      C1898   1.495       .  S
C1686      C1917   1.482       .  S
C1687      C1933   1.484       .  S
C1688      C1946   1.499       .  S
O1689     Ni1695   1.924       .  S
O1689      C2042   1.272       .  A
O1690     Ni1713   1.900       .  S
O1691      H1714   0.964       .  S
O1691     Ni2371   1.917       .  S
C1692      O1709   1.268   1_455  A
C1692      C1981   1.492       .  S
O1693     Ni1712   1.928       .  S
O1693      C2363   1.271       .  A
O1694     Ni1712   1.900       .  S
Ni1695     O1698   1.929       .  S
Ni1695     O1700   1.895       .  S
C1696      O1706   1.278   1_455  A
C1696      C1882   1.480       .  S
O1697     Ni1713   1.911   1_554  S
O1698      C1703   1.273       .  A
C1699      O2357   1.271       .  A
C1699      C1837   1.479       .  S
O1700      C1702   1.269       .  A
O1701     Ni1712   1.940       .  S
C1702      C1869   1.474       .  S
C1703      C1962   1.488       .  S
H1704      O1705   0.966       .  S
O1705     Ni2377   1.915   1_545  S
O1706     Ni1707   1.944       .  S
Ni1707     O1711   1.913       .  S
Ni1707     O1709   1.908       .  S
Ni1707     O2355   1.921   1_545  S
O1708     Ni1713   1.938       .  S
C1710      O2021   1.270       .  A
C1710      O1711   1.270   1_565  A
Ni1713     O2369   1.922       .  S
O1715     Ni1721   1.919       .  S
O1715      C1736   1.271       .  A
O1716     Ni1739   1.908       .  S
O1716      C1725   1.269       .  A
O1717      H1740   0.966       .  S
O1717     Ni1721   1.915       .  S
O1717     Ni2397   1.918       .  S
C1718      O1735   1.267   1_455  A
C1718      C1914   1.497       .  S
O1719     Ni1738   1.923       .  S
O1719      C2389   1.271       .  A
O1720     Ni1738   1.899       .  S
Ni1721     O1724   1.931       .  S
Ni1721     O1726   1.895       .  S
C1722      O1732   1.277   1_455  A
C1722      C1866   1.478       .  S
O1723     Ni1739   1.911       .  S
O1724      C1729   1.269       .  A
C1725      O2383   1.272       .  A
C1725      C1802   1.482       .  S
O1726      C1728   1.268       .  A
O1727     Ni1738   1.937       .  S
C1728      C1885   1.476       .  S
C1729      C1901   1.489       .  S
H1730      O1731   0.966       .  S
O1731     Ni2403   1.918   1_545  S
O1731     Ni1738   1.914       .  S
O1732     Ni1733   1.938       .  S
Ni1733     O1737   1.908       .  S
Ni1733     O1735   1.901       .  S
Ni1733     O2381   1.916   1_545  S
O1734     Ni1739   1.943       .  S
C1736      O2401   1.267       .  A
C1736      C1818   1.477       .  S
O1737      C2400   1.268   1_545  A
Ni1739     O2395   1.922       .  S
O1741     Ni1749   1.906       .  S
O1742     Ni1749   1.908       .  S
O1742      C1752   1.278   1_545  A
O1743     Ni1749   1.923       .  S
O1743      C1753   1.283   1_545  A
O1744      C1754   1.283   1_545  A
O1745     Ni1750   1.917       .  S
O1745      C2418   1.281       .  A
O1746      C2417   1.279       .  A
O1747     Ni1750   1.911       .  S
O1747      C2084   1.280       .  A
O1748     Ni1750   1.912       .  S
O1748      C2415   1.279       .  A
Ni1749    Ni2082   2.383   1_545  S
Ni1750    Ni2081   2.382       .  S
C1751      O2412   1.280       .  A
C1751      C2498   1.491       .  S
C1752      O2079   1.281       .  A
C1752      C1850   1.469       .  S
C1753      O2410   1.280       .  A
C1753      C2434   1.492       .  S
C1754      O2409   1.279       .  A
C1754      C2450   1.486       .  S
O1755     Ni1763   1.925       .  S
O1755      C1765   1.284       .  A
O1756     Ni1763   1.924       .  S
O1756      C1766   1.284       .  A
O1757     Ni1763   1.910       .  S
O1757      C1767   1.279       .  A
O1758     Ni1763   1.914       .  S
O1758      C1768   1.279       .  A
O1759     Ni1764   1.920       .  S
O1759      C2432   1.284   1_545  A
O1760     Ni1764   1.919       .  S
O1760      C2431   1.282   1_545  A
O1761     Ni1764   1.918       .  S
O1761      C2430   1.281   1_545  A
O1762     Ni1764   1.918       .  S
O1762      C2429   1.281   1_545  A
Ni1763    Ni2428   2.379       .  S
Ni1764    Ni2427   2.380   1_545  S
C1765      O2426   1.280       .  A
C1765      C1773   1.493       .  S
C1766      O2425   1.280       .  A
C1766      C1789   1.497       .  S
C1767      O2424   1.283       .  A
C1767      C1821   1.493       .  S
C1768      O2423   1.284       .  A
C1768      C1805   1.492       .  S
C1769      C2434   1.406   1_545  A
C1769      C1774   1.406       .  A
C1769      H1776   1.084       .  S
C1770      C2417   1.494       .  S
C1770      C2433   1.406       .  A
C1770      C1771   1.420       .  A
C1771      C1772   1.406       .  A
C1771      C1778   1.508       .  S
C1772      C1773   1.405       .  A
C1772      H1777   1.084       .  S
C1773      C2438   1.420       .  A
C1774      C2437   1.419   1_545  A
C1774      C1775   1.508       .  S
C1775      H1779   1.111       .  S
C1775      H1780   1.109       .  S
C1775      H1781   1.111       .  S
C1778      H1782   1.109       .  S
C1778      H1783   1.110       .  S
C1778      H1784   1.111       .  S
C1785      C2450   1.404   1_545  A
C1785      C1790   1.405       .  A
C1785      H1792   1.084       .  S
C1786      C2418   1.495       .  S
C1786      C2449   1.407       .  A
C1786      C1787   1.419       .  A
C1787      C1788   1.406       .  A
C1787      C1794   1.509       .  S
C1788      C1789   1.406       .  A
C1788      H1793   1.084       .  S
C1789      C2454   1.421       .  A
C1790      C2453   1.418   1_545  A
C1790      C1791   1.508       .  S
C1791      H1795   1.111       .  S
C1791      H1796   1.111       .  S
C1791      H1797   1.109       .  S
C1794      H1798   1.111       .  S
C1794      H1799   1.110       .  S
C1794      H1800   1.111       .  S
C1801      C1802   1.402       .  A
C1801      C1806   1.407       .  A
C1801      H1808   1.085       .  S
C1802      C1803   1.414       .  A
C1803      C1804   1.404       .  A
C1803      C2474   1.508       .  S
C1804      C1805   1.406       .  A
C1804      H2473   1.084       .  S
C1805      C1806   1.422       .  A
C1806      C1807   1.509       .  S
C1807      H1811   1.111       .  S
C1807      H1812   1.111       .  S
C1807      H2477   1.110       .  S
H1809      C2468   1.083       .  S
C1810      C2467   1.510       .  S
C1810      H2478   1.109       .  S
C1810      H1815   1.111       .  S
C1810      H1816   1.111       .  S
H1813      C2471   1.110       .  S
H1814      C2474   1.109       .  S
C1817      C1818   1.400       .  A
C1817      C1822   1.401       .  A
C1817      H1824   1.085       .  S
C1818      C2483   1.412       .  A
C1819      C2482   1.413   1_545  A
C1819      C1820   1.406       .  A
C1819      C1826   1.506       .  S
C1820      C2485   1.410   1_545  A
C1820      H1825   1.083       .  S
C1821      C2484   1.410       .  A
C1821      C1822   1.422       .  A
C1822      C1823   1.509       .  S
C1823      H1827   1.111       .  S
C1823      H1828   1.110       .  S
C1823      H1829   1.110       .  S
C1826      H1830   1.110       .  S
C1826      H1831   1.110       .  S
C1826      H1832   1.111       .  S
C1833      C2498   1.408   1_545  A
C1833      C1838   1.401       .  A
C1833      H1840   1.083       .  S
C1834      C2415   1.491       .  S
C1834      C2497   1.408       .  A
C1835      C1836   1.403       .  A
C1835      C1842   1.506       .  S
C1836      H1841   1.083       .  S
C1837      C2502   1.413       .  A
C1838      C2501   1.413       .  A
C1838      C1839   1.509       .  S
C1839      H1843   1.111       .  S
C1839      H1844   1.109       .  S
C1842      H1847   1.110       .  S
C1842      H1848   1.111       .  S
C1849      C1854   1.406       .  A
C1849      H1856   1.084       .  S
C1850      C2515   1.409       .  A
C1851      C2514   1.412       .  A
C1851      C1852   1.401       .  A
C1851      C1858   1.509       .  S
C1852      C2517   1.409       .  A
C1852      H1857   1.084       .  S
C1853      C2516   1.408       .  A
C1854      C1855   1.508       .  S
C1855      H1859   1.111       .  S
C1855      H1861   1.110       .  S
C1858      H1862   1.111       .  S
C1858      H1864   1.111       .  S
C1865      C1866   1.404   1_655  A
C1865      C2534   1.400       .  A
C1865      H1872   1.084       .  S
C1867      C2532   1.401       .  A
C1867      C1874   1.509       .  S
C1868      C2531   1.402       .  A
C1868      H1873   1.084       .  S
C1869      C1870   1.416       .  A
C1870      C2529   1.401       .  A
C1870      C1871   1.510       .  S
C1871      H1875   1.111       .  S
C1871      H2540   1.111       .  S
C1871      H1877   1.109       .  S
C1874      H1878   1.109       .  S
C1874      H2543   1.111       .  S
C1874      H1880   1.111       .  S
H1876      C2535   1.111       .  S
H1879      C2538   1.111       .  S
C1881      C1886   1.401       .  A
C1881      H1888   1.085       .  S
C1882      C2547   1.416   1_545  A
C1883      C2546   1.415       .  A
C1883      C1884   1.402       .  A
C1883      C1890   1.509       .  S
C1884      C1885   1.402   1_455  A
C1884      H1889   1.084       .  S
C1886      C1887   1.509       .  S
C1887      H1891   1.109       .  S
C1887      H1892   1.111       .  S
C1887      H1893   1.111       .  S
C1890      H1894   1.109       .  S
C1890      H1895   1.111       .  S
C1890      H1896   1.111       .  S
C1897      C1898   1.405       .  A
C1897      C1902   1.401       .  A
C1897      H1904   1.083       .  S
C1899      C1900   1.406       .  A
C1899      C1906   1.509       .  S
C1900      H1905   1.084       .  S
C1901      C1902   1.419       .  A
C1902      C1903   1.510       .  S
C1903      H1907   1.111       .  S
C1903      H1908   1.110       .  S
C1903      H1909   1.110       .  S
C1906      H1910   1.110       .  S
C1906      H1911   1.110       .  S
C1906      H1912   1.111       .  S
C1913      C1914   1.410   1_655  A
C1913      C1918   1.404       .  A
C1913      H1920   1.082       .  S
C1915      C1916   1.403       .  A
C1915      C1922   1.510       .  S
C1916      H1921   1.084       .  S
C1917      C1918   1.413       .  A
C1918      C1919   1.508       .  S
C1919      H1923   1.111       .  S
C1919      H1924   1.111       .  S
C1919      H1925   1.110       .  S
C1922      H1926   1.110       .  S
C1922      H1927   1.110       .  S
C1922      H1928   1.111       .  S
C1929      C1934   1.407       .  A
C1929      H1936   1.084       .  S
C1930      C1931   1.417       .  A
C1931      C1932   1.406       .  A
C1931      C1938   1.508       .  S
C1932      C1933   1.405       .  A
C1932      H1937   1.084       .  S
C1934      C1935   1.508       .  S
C1935      H1939   1.111       .  S
C1935      H1940   1.110       .  S
C1935      H1941   1.109       .  S
C1938      H1942   1.109       .  S
C1938      H1943   1.111       .  S
C1938      H1944   1.111       .  S
C1945      C1950   1.404       .  A
C1945      H1952   1.084       .  S
C1946      C1947   1.421       .  A
C1947      C1948   1.406       .  A
C1947      C1954   1.509       .  S
C1948      C1949   1.407       .  A
C1948      H1953   1.083       .  S
C1950      C1951   1.509       .  S
C1951      H1955   1.111       .  S
C1951      H1956   1.110       .  S
C1951      H1957   1.108       .  S
C1954      H1958   1.110       .  S
C1954      H1959   1.110       .  S
C1954      H1960   1.111       .  S
C1961      C1962   1.409       .  A
C1961      C1966   1.398       .  A
C1961      H1968   1.083       .  S
C1963      C1964   1.409       .  A
C1964      H1969   1.083       .  S
C1965      C1966   1.409       .  A
C1966      C1967   1.509       .  S
C1967      H1971   1.111       .  S
C1967      H1972   1.109       .  S
C1967      H1973   1.111       .  S
C1970      H1974   1.110       .  S
C1970      H1976   1.111       .  S
C1977      C1982   1.404       .  A
C1977      H1984   1.084       .  S
C1979      C1980   1.402       .  A
C1979      C1986   1.507       .  S
C1980      H1985   1.083       .  S
C1982      C1983   1.509       .  S
C1983      H1987   1.111       .  S
C1983      H1988   1.109       .  S
C1983      H1989   1.110       .  S
C1986      H1990   1.110       .  S
C1986      H1991   1.109       .  S
C1986      H1992   1.111       .  S
O1993     Ni2333   1.910       .  S
O1994     Ni2001   1.918       .  S
O1995     Ni2001   1.913       .  S
O1995      C2005   1.280       .  A
O1996     Ni2333   1.912       .  S
O1996      C2006   1.280       .  A
O1997     Ni2002   1.918   1_554  S
O1998     Ni2334   1.910       .  S
O1999     Ni2334   1.919       .  S
O1999      C2004   1.281       .  A
O2000     Ni2002   1.920   1_554  S
O2000      C2003   1.282       .  A
Ni2001     O2325   1.916       .  S
Ni2001     O2328   1.909       .  S
Ni2002     O2330   1.918       .  S
Ni2002     O2331   1.916       .  S
C2003      C2281   1.485       .  S
C2004      C2262   1.487       .  S
O2007     Ni2015   1.917       .  S
O2007      C2017   1.283       .  A
O2008     Ni2015   1.913       .  S
O2008      C2018   1.279       .  A
O2009     Ni2015   1.919       .  S
O2009      C2019   1.282       .  A
O2010     Ni2015   1.919       .  S
O2010      C2020   1.281       .  A
O2011     Ni2016   1.917       .  S
O2012     Ni2016   1.917       .  S
O2013     Ni2016   1.909       .  S
O2014     Ni2016   1.911       .  S
C2017      C2230   1.493       .  S
C2018      C2249   1.491       .  S
C2019      C2265   1.488       .  S
C2020      C2278   1.486       .  S
O2021     Ni2027   1.909       .  S
O2022     Ni2045   1.899       .  S
O2022      C2363   1.266   1_565  A
O2023      H2046   0.964       .  S
O2023     Ni2359   1.918   1_554  S
C2024      O2041   1.265   1_454  A
C2024      C2313   1.492   1_455  S
O2025     Ni2044   1.917       .  S
O2026     Ni2044   1.897       .  S
Ni2027     O2030   1.930       .  S
Ni2027     O2032   1.897       .  S
Ni2027     O2355   1.917       .  S
C2028      O2038   1.278   1_455  A
C2028      C2214   1.473       .  S
O2029     Ni2045   1.901       .  S
O2030      C2035   1.271       .  A
C2031      O2354   1.268   1_544  A
C2031      C2169   1.492       .  S
O2032      C2034   1.268       .  A
O2033     Ni2044   1.927       .  S
C2034      C2201   1.475       .  S
C2035      C2294   1.484       .  S
H2036      O2037   0.966       .  S
O2037     Ni2376   1.915       .  S
O2038     Ni2039   1.942   1_554  S
Ni2039     O2043   1.902   1_556  S
Ni2039     O2041   1.903       .  S
O2040     Ni2045   1.947       .  S
C2042      O2043   1.266   1_556  A
C2042      C2517   1.494       .  S
Ni2044     O2369   1.917   1_554  S
O2047     Ni2053   1.915       .  S
O2047      C2068   1.270       .  A
O2048     Ni2071   1.903       .  S
O2048      C2057   1.268   1_565  A
O2049      H2072   0.966       .  S
O2049     Ni2053   1.917       .  S
C2050      O2067   1.269   1_455  A
C2050      C2246   1.479       .  S
O2051     Ni2070   1.920       .  S
O2052     Ni2070   1.904       .  S
Ni2053     O2056   1.930       .  S
Ni2053     O2058   1.900       .  S
C2054      O2064   1.280   1_455  A
C2054      C2198   1.482       .  S
O2055     Ni2071   1.904       .  S
O2056      C2061   1.269       .  A
C2057      C2134   1.483       .  S
O2058      C2060   1.270       .  A
O2059     Ni2070   1.927       .  S
C2060      C2217   1.481       .  S
C2061      C2233   1.479       .  S
H2062      O2063   0.966       .  S
O2063     Ni2070   1.915       .  S
O2064     Ni2065   1.949       .  S
Ni2065     O2069   1.915       .  S
Ni2065     O2067   1.908       .  S
O2066     Ni2071   1.945       .  S
C2068      C2150   1.476       .  S
O2073     Ni2081   1.915       .  S
O2073      C2415   1.282       .  A
O2074     Ni2081   1.916       .  S
O2074      C2084   1.281       .  A
O2075     Ni2081   1.922       .  S
O2075      C2085   1.283       .  A
O2076     Ni2413   1.922   1_554  S
O2076      C2086   1.283       .  A
O2077     Ni2082   1.916   1_554  S
O2078     Ni2414   1.914       .  S
O2079     Ni2082   1.915       .  S
O2080     Ni2082   1.919       .  S
Ni2081     O2408   1.923       .  S
Ni2082     O2410   1.915       .  S
C2083      O2405   1.280       .  A
C2084      C2182   1.480       .  S
O2087     Ni2095   1.919       .  S
O2087      C2097   1.283       .  A
O2088     Ni2095   1.920       .  S
O2088      C2098   1.283       .  A
O2089     Ni2095   1.913       .  S
O2089      C2099   1.280       .  A
O2090     Ni2095   1.916       .  S
O2090      C2100   1.279       .  A
O2091     Ni2096   1.918       .  S
O2092     Ni2096   1.918       .  S
O2093     Ni2096   1.917       .  S
O2094     Ni2096   1.914       .  S
C2097      C2105   1.498       .  S
C2098      C2121   1.491       .  S
C2099      C2153   1.491       .  S
C2100      C2137   1.495       .  S
C2101      C2106   1.405       .  A
C2101      H2108   1.084       .  S
C2102      C2103   1.421       .  A
C2103      C2104   1.405       .  A
C2103      C2110   1.509       .  S
C2104      C2105   1.407       .  A
C2104      H2109   1.083       .  S
C2106      C2107   1.509       .  S
C2107      H2111   1.111       .  S
C2107      H2112   1.109       .  S
C2107      H2113   1.111       .  S
C2110      H2114   1.110       .  S
C2110      H2115   1.110       .  S
C2110      H2116   1.111       .  S
C2117      C2122   1.405       .  A
C2117      H2124   1.084       .  S
C2118      C2119   1.419       .  A
C2119      C2120   1.405       .  A
C2119      C2126   1.509       .  S
C2120      C2121   1.405       .  A
C2120      H2125   1.084       .  S
C2122      C2123   1.508       .  S
C2123      H2127   1.111       .  S
C2123      H2128   1.109       .  S
C2123      H2129   1.111       .  S
C2126      H2130   1.110       .  S
C2126      H2131   1.111       .  S
C2126      H2132   1.111       .  S
C2133      C2134   1.404   1_565  A
C2133      C2138   1.408       .  A
C2133      H2140   1.084       .  S
C2134      C2135   1.415       .  A
C2135      C2136   1.400       .  A
C2136      C2137   1.406   1_545  A
C2137      C2138   1.424       .  A
C2138      C2139   1.508       .  S
C2139      H2143   1.111       .  S
C2139      H2144   1.110       .  S
C2142      H2147   1.111       .  S
C2142      H2148   1.111       .  S
C2149      C2150   1.401       .  A
C2149      C2154   1.401       .  A
C2149      H2156   1.085       .  S
C2151      C2152   1.407       .  A
C2151      C2158   1.507       .  S
C2152      H2157   1.084       .  S
C2153      C2154   1.421       .  A
C2154      C2155   1.509       .  S
C2155      H2159   1.111       .  S
C2155      H2160   1.109       .  S
C2155      H2161   1.111       .  S
C2158      H2162   1.110       .  S
C2158      H2163   1.111       .  S
C2158      H2164   1.111       .  S
C2165      C2170   1.400       .  A
C2165      H2172   1.085       .  S
C2166      C2499   1.419       .  A
C2167      C2498   1.421       .  A
C2167      C2168   1.405       .  A
C2167      C2174   1.509       .  S
C2168      C2501   1.403   1_565  A
C2168      H2173   1.083       .  S
C2169      C2500   1.408   1_544  A
C2170      C2171   1.510       .  S
C2171      H2175   1.111       .  S
C2171      H2176   1.110       .  S
C2171      H2509   1.110       .  S
C2174      H2510   1.109       .  S
C2174      H2179   1.110       .  S
C2174      H2180   1.111       .  S
H2177      C2503   1.110       .  S
H2178      C2506   1.110   1_554  S
C2181      C2514   1.404   1_554  A
C2181      C2186   1.407       .  A
C2181      H2188   1.084       .  S
C2182      C2513   1.403       .  A
C2183      C2184   1.398       .  A
C2183      C2190   1.510       .  S
C2184      H2189   1.083       .  S
C2185      C2374   1.495       .  S
C2185      C2518   1.423       .  A
C2186      C2517   1.422   1_554  A
C2186      C2187   1.509       .  S
C2187      H2191   1.111       .  S
C2187      H2524   1.110       .  S
C2187      H2193   1.110       .  S
C2190      H2194   1.111       .  S
C2190      H2527   1.109       .  S
C2190      H2196   1.111       .  S
H2192      C2519   1.110       .  S
H2195      C2522   1.109       .  S
C2197      C2198   1.405   1_655  A
C2197      H2204   1.084       .  S
C2199      C2206   1.509       .  S
C2200      H2205   1.084       .  S
C2201      C2202   1.415   1_565  A
C2202      C2203   1.510       .  S
C2203      H2207   1.111       .  S
C2203      H2209   1.109   1_545  S
C2206      H2210   1.109       .  S
C2206      H2212   1.111       .  S
C2213      C2218   1.401       .  A
C2213      H2220   1.084       .  S
C2215      C2216   1.401       .  A
C2215      C2222   1.509       .  S
C2216      C2217   1.404   1_455  A
C2216      H2221   1.084       .  S
C2218      C2219   1.509       .  S
C2219      H2223   1.109       .  S
C2219      H2224   1.111       .  S
C2219      H2225   1.111       .  S
C2222      H2226   1.109       .  S
C2222      H2227   1.111       .  S
C2222      H2228   1.111       .  S
C2229      C2230   1.407       .  A
C2229      C2234   1.401       .  A
C2229      H2236   1.083       .  S
C2231      C2232   1.404       .  A
C2231      C2238   1.508       .  S
C2232      H2237   1.084       .  S
C2233      C2234   1.414       .  A
C2234      C2235   1.509       .  S
C2235      H2239   1.111       .  S
C2235      H2240   1.109       .  S
C2235      H2241   1.111       .  S
C2238      H2242   1.109       .  S
C2238      H2243   1.109       .  S
C2238      H2244   1.111       .  S
C2245      C2246   1.401   1_655  A
C2245      C2250   1.404       .  A
C2245      H2252   1.084       .  S
C2247      C2248   1.400       .  A
C2247      C2254   1.510       .  S
C2248      H2253   1.085       .  S
C2249      C2250   1.422       .  A
C2250      C2251   1.508       .  S
C2251      H2255   1.111       .  S
C2251      H2256   1.110       .  S
C2251      H2257   1.110       .  S
C2254      H2258   1.110       .  S
C2254      H2259   1.110       .  S
C2254      H2260   1.111       .  S
C2261      C2266   1.404       .  A
C2261      H2268   1.084       .  S
C2262      C2263   1.417       .  A
C2263      C2264   1.405       .  A
C2263      C2270   1.508       .  S
C2264      C2265   1.405       .  A
C2264      H2269   1.084       .  S
C2266      C2267   1.508       .  S
C2267      H2271   1.111       .  S
C2267      H2272   1.109       .  S
C2267      H2273   1.110       .  S
C2270      H2274   1.109       .  S
C2270      H2275   1.110       .  S
C2270      H2276   1.111       .  S
C2277      C2282   1.403       .  A
C2277      H2284   1.083       .  S
C2278      C2279   1.418       .  A
C2279      C2280   1.406       .  A
C2279      C2286   1.508       .  S
C2280      C2281   1.405       .  A
C2280      H2285   1.084       .  S
C2282      C2283   1.510       .  S
C2283      H2287   1.111       .  S
C2283      H2288   1.110       .  S
C2283      H2289   1.110       .  S
C2286      H2290   1.110       .  S
C2286      H2291   1.110       .  S
C2286      H2292   1.111       .  S
C2293      C2294   1.408       .  A
C2293      C2298   1.399       .  A
C2293      H2300   1.084       .  S
C2295      C2296   1.404       .  A
C2295      C2634   1.508       .  S
C2296      H2301   1.084       .  S
C2297      C2298   1.408       .  A
C2298      C2299   1.509       .  S
C2299      H2303   1.111       .  S
C2299      H2304   1.109       .  S
C2299      H2305   1.111       .  S
C2302      C2627   1.509       .  S
C2302      H2306   1.110       .  S
C2302      H2639   1.110       .  S
C2302      H2308   1.111       .  S
H2307      C2634   1.108       .  S
C2309      C2642   1.400       .  A
C2309      C2314   1.404       .  A
C2309      H2316   1.084       .  S
C2310      C2641   1.402   1_554  A
C2311      C2312   1.400       .  A
C2311      C2318   1.508       .  S
C2312      H2317   1.084       .  S
C2313      C2646   1.422   1_554  A
C2314      C2645   1.421       .  A
C2314      C2315   1.509       .  S
C2315      H2319   1.111       .  S
C2315      H2320   1.110       .  S
C2315      H2321   1.110       .  S
C2318      H2322   1.111       .  S
C2318      H2323   1.110       .  S
C2318      H2324   1.111       .  S
O2326     Ni2333   1.913   1_556  S
O2327     Ni2333   1.910       .  S
O2327      C2337   1.280   1_554  A
O2328      C2338   1.280       .  A
O2329     Ni2334   1.912       .  S
O2331      C2336   1.280       .  A
O2332     Ni2334   1.923       .  S
O2332      C2335   1.284       .  A
C2335      C2613   1.495       .  S
C2336      C2594   1.490       .  S
O2339     Ni2347   1.915       .  S
O2339      C2349   1.282       .  A
O2340     Ni2347   1.916       .  S
O2340      C2350   1.280       .  A
O2341     Ni2347   1.919       .  S
O2341      C2351   1.282       .  A
O2342     Ni2347   1.917       .  S
O2342      C2352   1.280       .  A
O2343     Ni2348   1.921       .  S
O2344     Ni2348   1.919       .  S
O2345     Ni2348   1.912       .  S
O2346     Ni2348   1.914       .  S
C2349      C2562   1.494       .  S
C2350      C2581   1.474       .  S
C2351      C2597   1.491       .  S
C2352      C2610   1.497       .  S
O2353     Ni2359   1.921       .  S
O2354     Ni2377   1.907       .  S
O2355      H2378   0.964       .  S
C2356      O2373   1.264   1_455  A
C2356      C2645   1.485   1_455  S
O2357     Ni2376   1.928       .  S
O2358     Ni2376   1.902       .  S
Ni2359     O2362   1.934       .  S
Ni2359     O2364   1.894       .  S
C2360      O2370   1.277   1_455  A
C2360      C2546   1.474       .  S
O2361     Ni2377   1.899   1_554  S
O2362      C2367   1.273       .  A
C2363      C2501   1.482       .  S
O2364      C2366   1.268       .  A
O2365     Ni2376   1.931       .  S
C2366      C2533   1.475       .  S
C2367      C2626   1.493       .  S
H2368      O2369   0.966       .  S
O2370     Ni2371   1.947       .  S
Ni2371     O2375   1.900       .  S
Ni2371     O2373   1.897       .  S
O2372     Ni2377   1.940       .  S
C2374      O2375   1.265       .  A
O2379     Ni2385   1.923       .  S
O2379      C2400   1.272       .  A
O2380     Ni2403   1.906       .  S
O2380      C2389   1.268   1_565  A
O2381      H2404   0.966       .  S
O2381     Ni2385   1.913       .  S
C2382      O2399   1.267   1_455  A
C2382      C2578   1.492       .  S
O2383     Ni2402   1.926       .  S
O2384     Ni2402   1.903       .  S
Ni2385     O2388   1.937       .  S
Ni2385     O2390   1.905       .  S
C2386      O2396   1.279   1_455  A
C2386      C2530   1.477       .  S
O2387     Ni2403   1.906       .  S
O2388      C2393   1.271       .  A
C2389      C2466   1.484       .  S
O2390      C2392   1.271       .  A
O2391     Ni2402   1.934       .  S
C2392      C2549   1.482       .  S
C2393      C2565   1.489       .  S
H2394      O2395   0.966       .  S
O2395     Ni2402   1.914       .  S
O2396     Ni2397   1.946       .  S
Ni2397     O2401   1.901       .  S
Ni2397     O2399   1.905       .  S
O2398     Ni2403   1.944       .  S
C2400      C2482   1.484       .  S
O2405     Ni2413   1.907       .  S
O2406     Ni2413   1.912       .  S
O2406      C2416   1.279       .  A
O2407     Ni2413   1.927       .  S
O2407      C2417   1.285       .  A
O2408      C2418   1.283       .  A
O2409     Ni2414   1.912       .  S
O2411     Ni2414   1.914       .  S
O2412     Ni2414   1.915       .  S
C2416      C2514   1.479       .  S
O2419     Ni2427   1.919       .  S
O2419      C2429   1.283       .  A
O2420     Ni2427   1.919       .  S
O2420      C2430   1.282       .  A
O2421     Ni2427   1.915       .  S
O2421      C2431   1.280       .  A
O2422     Ni2427   1.917       .  S
O2422      C2432   1.279       .  A
O2423     Ni2428   1.922       .  S
O2424     Ni2428   1.922       .  S
O2425     Ni2428   1.918       .  S
O2426     Ni2428   1.916       .  S
C2429      C2437   1.491       .  S
C2430      C2453   1.486       .  S
C2431      C2485   1.495       .  S
C2432      C2469   1.497   1_565  S
C2433      C2438   1.407       .  A
C2433      H2440   1.084       .  S
C2434      C2435   1.419       .  A
C2435      C2436   1.405       .  A
C2435      C2442   1.509       .  S
C2436      C2437   1.405       .  A
C2436      H2441   1.084       .  S
C2438      C2439   1.509       .  S
C2439      H2443   1.111       .  S
C2439      H2444   1.109       .  S
C2439      H2445   1.111       .  S
C2442      H2446   1.111       .  S
C2442      H2447   1.110       .  S
C2442      H2448   1.111       .  S
C2449      C2454   1.408       .  A
C2449      H2456   1.084       .  S
C2450      C2451   1.418       .  A
C2451      C2452   1.404       .  A
C2451      C2458   1.508       .  S
C2452      C2453   1.404       .  A
C2452      H2457   1.084       .  S
C2454      C2455   1.509       .  S
C2455      H2459   1.111       .  S
C2455      H2460   1.110       .  S
C2455      H2461   1.110       .  S
C2458      H2462   1.110       .  S
C2458      H2463   1.110       .  S
C2458      H2464   1.111       .  S
C2465      C2466   1.403   1_565  A
C2465      C2470   1.408       .  A
C2465      H2472   1.084       .  S
C2466      C2467   1.416       .  A
C2467      C2468   1.402       .  A
C2468      C2469   1.407       .  A
C2469      C2470   1.424   1_545  A
C2470      C2471   1.508       .  S
C2471      H2475   1.111       .  S
C2471      H2476   1.110       .  S
C2474      H2479   1.110       .  S
C2474      H2480   1.111       .  S
C2481      C2482   1.403       .  A
C2481      C2486   1.403       .  A
C2481      H2488   1.084       .  S
C2483      C2484   1.406       .  A
C2483      C2490   1.509       .  S
C2484      H2489   1.083       .  S
C2485      C2486   1.421       .  A
C2486      C2487   1.509       .  S
C2487      H2491   1.111       .  S
C2487      H2492   1.110       .  S
C2487      H2493   1.111       .  S
C2490      H2494   1.111       .  S
C2490      H2495   1.110       .  S
C2490      H2496   1.111       .  S
C2497      C2502   1.402       .  A
C2497      H2504   1.084       .  S
C2499      C2500   1.408       .  A
C2499      C2506   1.508       .  S
C2500      H2505   1.083       .  S
C2502      C2503   1.508       .  S
C2503      H2507   1.111       .  S
C2503      H2508   1.109       .  S
C2506      H2511   1.110       .  S
C2506      H2512   1.111       .  S
C2513      C2518   1.406       .  A
C2513      H2520   1.084       .  S
C2515      C2516   1.399       .  A
C2515      C2522   1.509       .  S
C2516      H2521   1.084       .  S
C2518      C2519   1.509       .  S
C2519      H2523   1.111       .  S
C2519      H2525   1.110       .  S
C2522      H2526   1.111       .  S
C2522      H2528   1.111       .  S
C2529      C2530   1.403   1_655  A
C2529      H2536   1.084       .  S
C2531      C2538   1.509       .  S
C2532      H2537   1.084       .  S
C2533      C2534   1.415   1_565  A
C2534      C2535   1.510       .  S
C2535      H2539   1.111       .  S
C2535      H2541   1.110   1_545  S
C2538      H2542   1.109       .  S
C2538      H2544   1.111       .  S
C2545      C2550   1.404       .  A
C2545      H2552   1.084       .  S
C2547      C2548   1.402       .  A
C2547      C2554   1.509       .  S
C2548      C2549   1.404   1_455  A
C2548      H2553   1.084       .  S
C2550      C2551   1.509       .  S
C2551      H2555   1.109       .  S
C2551      H2556   1.111       .  S
C2551      H2557   1.111       .  S
C2554      H2558   1.109   1_565  S
C2554      H2559   1.111       .  S
C2554      H2560   1.111       .  S
C2561      C2562   1.406       .  A
C2561      C2566   1.402       .  A
C2561      H2568   1.083       .  S
C2563      C2564   1.405       .  A
C2563      C2570   1.508       .  S
C2564      H2569   1.084       .  S
C2565      C2566   1.418       .  A
C2566      C2567   1.510       .  S
C2567      H2571   1.111       .  S
C2567      H2572   1.109       .  S
C2567      H2573   1.111       .  S
C2570      H2574   1.110       .  S
C2570      H2575   1.109       .  S
C2570      H2576   1.111       .  S
C2577      C2578   1.409   1_655  A
C2577      C2582   1.405       .  A
C2577      H2584   1.084       .  S
C2579      C2580   1.402       .  A
C2579      C2586   1.509       .  S
C2580      H2585   1.085       .  S
C2581      C2582   1.411       .  A
C2582      C2583   1.507       .  S
C2583      H2587   1.111       .  S
C2583      H2588   1.111       .  S
C2583      H2589   1.109       .  S
C2586      H2590   1.110       .  S
C2586      H2591   1.111       .  S
C2586      H2592   1.111       .  S
C2593      C2598   1.403       .  A
C2593      H2600   1.084       .  S
C2594      C2595   1.419       .  A
C2595      C2596   1.405       .  A
C2595      C2602   1.509       .  S
C2596      C2597   1.406       .  A
C2596      H2601   1.084       .  S
C2598      C2599   1.507       .  S
C2599      H2603   1.111       .  S
C2599      H2604   1.109       .  S
C2599      H2605   1.109       .  S
C2602      H2606   1.110       .  S
C2602      H2607   1.111       .  S
C2602      H2608   1.111       .  S
C2609      C2614   1.406       .  A
C2609      H2616   1.084       .  S
C2610      C2611   1.421       .  A
C2611      C2612   1.405       .  A
C2611      C2618   1.509       .  S
C2612      C2613   1.405       .  A
C2612      H2617   1.084       .  S
C2614      C2615   1.509       .  S
C2615      H2619   1.111       .  S
C2615      H2620   1.109       .  S
C2615      H2621   1.110       .  S
C2618      H2622   1.110       .  S
C2618      H2623   1.110       .  S
C2618      H2624   1.111       .  S
C2625      C2626   1.410       .  A
C2625      C2630   1.402       .  A
C2625      H2632   1.084       .  S
C2627      C2628   1.402       .  A
C2628      H2633   1.084       .  S
C2629      C2630   1.410       .  A
C2630      C2631   1.509       .  S
C2631      H2635   1.111       .  S
C2631      H2636   1.109       .  S
C2631      H2637   1.111       .  S
C2634      H2638   1.110       .  S
C2634      H2640   1.111       .  S
C2641      C2646   1.406       .  A
C2641      H2648   1.084       .  S
C2643      C2644   1.398       .  A
C2643      C2650   1.509       .  S
C2644      H2649   1.083       .  S
C2646      C2647   1.509       .  S
C2647      H2651   1.111       .  S
C2647      H2652   1.110       .  S
C2647      H2653   1.110       .  S
C2650      H2654   1.110       .  S
C2650      H2655   1.109       .  S
C2650      H2656   1.111       .  S
