geometry optimzed in LAMMPS
_audit_creation_date              2020-11-30 
_audit_creation_method            'lammps2cif' 
_symmetry_space_group_name_H-M    'P1' 
_symmetry_Int_Tables_number       1 
_symmetry_cell_setting            triclinic 
loop_ 
_symmetry_equiv_pos_as_xyz 
  x,y,z 
_cell_length_a                    25.0815682 
_cell_length_b                    24.975804292291638 
_cell_length_c                    25.0611609710911 
_cell_angle_alpha                 89.95901315017619 
_cell_angle_beta                  90.01563761689457 
_cell_angle_gamma                 89.93715857781139 
loop_ 
_atom_site_label 
_atom_site_type_symbol 
_atom_site_fract_x 
_atom_site_fract_y 
_atom_site_fract_z 
_atom_site_charge 
N1          N  0.00324312  0.50431296  0.41901900    -0.36100
N2          N  0.99954803  0.41968794  0.49854647    -0.56700
N3          N  0.00878747  0.49911167  0.58218409    -0.36100
N4          N  0.00486873  0.58400929  0.50272120    -0.56700
C5          C  0.98528425  0.46240456  0.39018807     0.27500
C6          C  0.98964582  0.54938496  0.39241949     0.27500
C7          C  0.99278701  0.45501591  0.60907520     0.27500
C8          C  0.99288988  0.54220401  0.61075764     0.27500
C9          C  0.00978115  0.39111892  0.45391215     0.36100
C10         C  0.01363563  0.38827233  0.54022793     0.36100
C11         C  0.02108758  0.61296407  0.46017805     0.36100
C12         C  0.02153498  0.61061842  0.54657108     0.36100
C13         C  0.95887409  0.48099474  0.34516754    -0.21400
C14         C  0.96149961  0.53606734  0.34664671    -0.21400
C15         C  0.96557555  0.47003755  0.65475376    -0.21400
C16         C  0.96489086  0.52517444  0.65540149    -0.21400
C17         C  0.03113277  0.34168129  0.46733106    -0.22500
C18         C  0.03346713  0.33984971  0.52209352    -0.22500
C19         C  0.04943641  0.65746353  0.47695207    -0.22500
C20         C  0.04969132  0.65599750  0.53182281    -0.22500
C21         C  0.99658969  0.40824278  0.40175621    -0.17800
C22         C  0.00620557  0.60134187  0.40710799    -0.17800
C23         C  0.00756225  0.59565942  0.59912709    -0.17800
C24         C  0.00472304  0.40187407  0.59411611    -0.17800
H25         H  0.94009541  0.45740286  0.31422906     0.15100
H26         H  0.94497215  0.56302985  0.31713023     0.15100
H27         H  0.94760649  0.44400212  0.68421137     0.15100
H28         H  0.94596789  0.54970645  0.68549682     0.15100
H29         H  0.04378939  0.31015729  0.44059284     0.13400
H30         H  0.04799481  0.30664064  0.54574381     0.13400
H31         H  0.06796838  0.68780600  0.45235078     0.13400
H32         H  0.06860096  0.68492647  0.55774611     0.13400
H33         H  0.02916875  0.50208840  0.45146282     0.26600
H34         H  0.03447534  0.49958038  0.54945559     0.26600
O35         O  0.99899622  0.15661333  0.08458276    -0.86000
O36         O  0.00178347  0.85279070  0.09179672    -0.86200
O37         O  0.90982880  0.00651088  0.15192056    -0.87800
O38         O  0.08501822  0.00150106  0.15246009    -0.86600
O39         O  0.15027776  0.99658413  0.08821489    -0.86200
O40         O  0.84646364  0.99869276  0.08610580    -0.87600
O41         O  0.99742670  0.91854992  0.15572441    -0.86000
O42         O  0.99554299  0.09265564  0.15041080    -0.85600
Zr43       Zr  0.99753194  0.00408698  0.10893634     2.84300
O44         O  0.05211319  0.94931994  0.05632382    -1.07600
O45         O  0.94382011  0.05594392  0.05276556    -1.08300
C46         C  0.99671027  0.14170464  0.13388550     1.07100
C47         C  0.00025960  0.86920712  0.14062534     1.07000
C48         C  0.86108652  0.00279886  0.13546404     1.10000
C49         C  0.13414471  0.99770994  0.13710754     1.07800
H50         H  0.92237535  0.92531530  0.07847394     0.33400
O51         O  0.94458890  0.94736476  0.05614462    -1.28600
H52         H  0.07491980  0.07931837  0.07677987     0.33000
O53         O  0.05281762  0.05685641  0.05478874    -1.30200
O54         O  0.00125146  0.84681015  0.91765937    -0.86000
O55         O  0.00019842  0.15165269  0.91118933    -0.87500
O56         O  0.84865287  0.91169934  0.99605127    -0.86100
O57         O  0.14954917  0.91333213  0.00330329    -0.86100
O58         O  0.15063678  0.08907744  0.99883116    -0.85800
O59         O  0.84574103  0.08487633  0.99543636    -0.85600
O60         O  0.91541321  0.99721461  0.84733004    -0.86000
O61         O  0.08812092  0.00408633  0.84993558    -0.85500
O62         O  0.84988638  0.99351025  0.91123477    -0.86500
O63         O  0.15218194  0.99931780  0.91525543    -0.85700
O64         O  0.91397757  0.84773115  0.00404453    -0.86100
O65         O  0.90970499  0.15069891  0.99927924    -0.85800
O66         O  0.08595113  0.15431922  0.99905054    -0.85500
O67         O  0.08523471  0.84808167  0.00750125    -0.85900
O68         O  0.00131110  0.91115891  0.85208722    -0.86200
O69         O  0.99576443  0.08547749  0.84766716    -0.87500
Zr70       Zr  0.99971660  0.89326595  0.00339432     2.83100
Zr71       Zr  0.99876678  0.10961295  0.99921864     2.83500
Zr72       Zr  0.89152572  0.99926653  0.99932230     2.84100
Zr73       Zr  0.10690036  0.00145105  0.00158309     2.83400
Zr74       Zr  0.00076313  0.99953215  0.89335709     2.84200
O75         O  0.05365115  0.05507049  0.94655461    -1.08100
O76         O  0.94658598  0.94528933  0.94696497    -1.07600
C77         C  0.00142616  0.86204050  0.86836462     1.07100
C78         C  0.99753440  0.13494862  0.86245053     1.09700
C79         C  0.86493826  0.86277143  0.99961084     1.07200
C80         C  0.13408168  0.86404107  0.00609202     1.07600
C81         C  0.13514352  0.13852786  0.99828334     1.07200
C82         C  0.86076698  0.13423893  0.99725930     1.06700
C83         C  0.86630000  0.99428252  0.86232277     1.07200
C84         C  0.13709878  0.00208871  0.86601331     1.06700
H85         H  0.92331518  0.07531814  0.92303388     0.33400
O86         O  0.94568099  0.05378884  0.94587912    -1.29200
H87         H  0.07672057  0.92329060  0.92665158     0.33400
O88         O  0.05424242  0.94586183  0.94824726    -1.30600
N89         N  0.49569970  0.99397139  0.41867916    -0.36100
N90         N  0.58136758  0.99802209  0.49741467    -0.56700
N91         N  0.50345404  0.98543300  0.58249033    -0.36100
N92         N  0.41741703  0.98918785  0.50363718    -0.56700
C93         C  0.53707103  0.01117579  0.38842796     0.27500
C94         C  0.45025324  0.00548257  0.39173564     0.27500
C95         C  0.54753939  0.00165511  0.60930697     0.27500
C96         C  0.46058020  0.99822196  0.61291159     0.27500
C97         C  0.60996578  0.99077768  0.45228199     0.36100
C98         C  0.61409179  0.98543909  0.53848643     0.36100
C99         C  0.38560656  0.97808832  0.46144297     0.36100
C100        C  0.38997634  0.97494306  0.54785591     0.36100
C101        C  0.51768891  0.03404705  0.34188485    -0.21400
C102        C  0.46298794  0.03061736  0.34402323    -0.21400
C103        C  0.53244308  0.02540430  0.65694332    -0.21400
C104        C  0.47767081  0.02323064  0.65922973    -0.21400
C105        C  0.66075983  0.97269425  0.46471039    -0.22500
C106        C  0.66328404  0.96903042  0.51925976    -0.22500
C107        C  0.33806277  0.95590773  0.47895765    -0.22500
C108        C  0.34087081  0.95385891  0.53368465    -0.22500
C109        C  0.59179825  0.00386526  0.40046364    -0.17800
C110        C  0.39797840  0.99115270  0.40785279    -0.17800
C111        C  0.40673491  0.98602461  0.60059119    -0.17800
C112        C  0.60097059  0.99329884  0.59278721    -0.17800
H113        H  0.54054283  0.05136695  0.30959428     0.15100
H114        H  0.43579033  0.04507284  0.31373166     0.15100
H115        H  0.55815420  0.04306615  0.68679362     0.15100
H116        H  0.45329453  0.03894453  0.69120162     0.15100
H117        H  0.69276558  0.96292495  0.43746280     0.13400
H118        H  0.69759864  0.95581337  0.54185480     0.13400
H119        H  0.30469111  0.94270072  0.45501193     0.13400
H120        H  0.31001335  0.93906984  0.56001142     0.13400
H121        H  0.49858615  0.97047253  0.45286561     0.26600
H122        H  0.50295782  0.96221291  0.54795986     0.26600
N123        N  0.49973349  0.42040148  0.99086452    -0.36100
N124        N  0.41854258  0.50385238  0.99312620    -0.56700
N125        N  0.50106869  0.58445612  0.99536248    -0.36100
N126        N  0.58212631  0.50131784  0.00115099    -0.56700
C127        C  0.45498456  0.39328259  0.00422439     0.27500
C128        C  0.54182689  0.39221018  0.00974922     0.27500
C129        C  0.45757733  0.61340099  0.00888222     0.27500
C130        C  0.54420661  0.61189068  0.01222046     0.27500
C131        C  0.39076019  0.46139585  0.97464227     0.36100
C132        C  0.39135337  0.54804115  0.97782800     0.36100
C133        C  0.61107995  0.45790929  0.98714961     0.36100
C134        C  0.61188710  0.54453145  0.98853450     0.36100
C135        C  0.46870365  0.34788719  0.03302283    -0.21400
C136        C  0.52355094  0.34730067  0.03665985    -0.21400
C137        C  0.47330848  0.65936916  0.03569274    -0.21400
C138        C  0.52816549  0.65856926  0.03745289    -0.21400
C139        C  0.34654253  0.47874523  0.94628650    -0.22500
C140        C  0.34677356  0.53376523  0.94855950    -0.22500
C141        C  0.65887749  0.47375505  0.96421656    -0.22500
C142        C  0.65959287  0.52876771  0.96560173    -0.22500
C143        C  0.40285437  0.40772317  0.98791158    -0.17800
C144        C  0.59589320  0.40483635  0.99955587    -0.17800
C145        C  0.59732482  0.59758459  0.00080855    -0.17800
C146        C  0.40494509  0.60054396  0.99346091    -0.17800
H147        H  0.44210169  0.31838000  0.05000588     0.15100
H148        H  0.54713042  0.31723604  0.05695460     0.15100
H149        H  0.44816985  0.69054056  0.05197868     0.15100
H150        H  0.55334670  0.68906077  0.05490253     0.15100
H151        H  0.31710833  0.45438907  0.92618311     0.13400
H152        H  0.31762831  0.56021112  0.93062319     0.13400
H153        H  0.69000652  0.44855800  0.94802949     0.13400
H154        H  0.69140711  0.55419395  0.95119189     0.13400
H155        H  0.50166116  0.45319805  0.96514526     0.26600
H156        H  0.50168643  0.55124088  0.97022033     0.26600
C157        C  0.75065381  0.77930429  0.98438931     0.20800
C158        C  0.69954294  0.76484401  0.96699291    -0.39100
C159        C  0.68149105  0.71466912  0.98423379     0.19800
C160        C  0.71194899  0.68142470  0.01634834     0.22400
C161        C  0.76307575  0.69586590  0.03372798    -0.39600
C162        C  0.78128183  0.74591825  0.01621406     0.21200
N163        N  0.77664052  0.82513921  0.97408948    -0.32800
C164        C  0.82425447  0.82064088  0.99925038    -0.10400
C165        C  0.82878582  0.77172484  0.02568389    -0.29200
N166        N  0.68594130  0.63561276  0.02664624    -0.45800
C167        C  0.63861459  0.63984436  0.00089297    -0.05100
C168        C  0.63433161  0.68860429  0.97410729    -0.22500
H169        H  0.67563231  0.79070279  0.94186597     0.19400
H170        H  0.78698528  0.66997587  0.05882217     0.18200
H171        H  0.86189336  0.75755690  0.04956313     0.14400
H172        H  0.60135316  0.70266739  0.94999337     0.14300
H173        H  0.76296446  0.85738576  0.95128275     0.32500
H174        H  0.69942461  0.60351175  0.04976057     0.35200
C175        C  0.67534334  0.28445554  0.99625369     0.20800
C176        C  0.68672326  0.23036135  0.98592387    -0.39100
C177        C  0.73998164  0.21481335  0.99368516     0.19800
C178        C  0.77878969  0.25054225  0.01017896     0.22400
C179        C  0.76708236  0.30417548  0.02177914    -0.39600
C180        C  0.71385814  0.31957552  0.01435812     0.21200
N181        N  0.62873669  0.31000001  0.98892928    -0.32800
C182        C  0.63725784  0.36179611  0.00311280    -0.10400
C183        C  0.68996702  0.36884503  0.01997392    -0.29200
N184        N  0.82670428  0.22664940  0.01245822    -0.45800
C185        C  0.81842653  0.17509526  0.99798843    -0.05100
C186        C  0.76471787  0.16605633  0.98614339    -0.22500
H187        H  0.65659710  0.20272073  0.97194096     0.19400
H188        H  0.79742768  0.33213273  0.03460166     0.18200
H189        H  0.70874196  0.40526477  0.03381660     0.14400
H190        H  0.74638859  0.12897723  0.97341054     0.14300
H191        H  0.59383745  0.29338371  0.97340513     0.32500
H192        H  0.86275727  0.24422242  0.02374519     0.35200
C193        C  0.28722246  0.68123662  0.00922024     0.20800
C194        C  0.23406720  0.69244277  0.02283657    -0.39100
C195        C  0.21756475  0.74553331  0.01475680     0.19800
C196        C  0.25171966  0.78450997  0.99543019     0.22400
C197        C  0.30470415  0.77324079  0.98163412    -0.39600
C198        C  0.32094637  0.72005995  0.98899592     0.21200
N199        N  0.31253891  0.63396022  0.01289515    -0.32800
C200        C  0.36277184  0.64257321  0.99471564    -0.10400
C201        C  0.36925455  0.69587513  0.97901946    -0.29200
N202        N  0.22650801  0.83169305  0.99096903    -0.45800
C203        C  0.17573030  0.82268766  0.00690963    -0.05100
C204        C  0.16849873  0.76936941  0.02207997    -0.22500
H205        H  0.20742783  0.66198501  0.03806467     0.19400
H206        H  0.33119970  0.80358131  0.96593008     0.18200
H207        H  0.40461819  0.71449391  0.96267889     0.14400
H208        H  0.13224128  0.75059599  0.03615668     0.14300
H209        H  0.29682442  0.59821079  0.02772614     0.32500
H210        H  0.24254164  0.86755535  0.97674504     0.35200
C211        C  0.31957334  0.29006533  0.98066046     0.20800
C212        C  0.30782600  0.23543582  0.97418286    -0.39100
C213        C  0.25485745  0.22041315  0.98469947     0.19800
C214        C  0.21630627  0.25713750  0.99962945     0.22400
C215        C  0.22822667  0.31167927  0.00665508    -0.39600
C216        C  0.28139352  0.32650529  0.99697126     0.21200
N217        N  0.36705680  0.31423891  0.97410800    -0.32800
C218        C  0.35954879  0.36647923  0.98726641    -0.10400
C219        C  0.30638100  0.37541208  0.00177952    -0.29200
N220        N  0.16881960  0.23288985  0.00632496    -0.45800
C221        C  0.17721536  0.18014468  0.99619442    -0.05100
C222        C  0.23054045  0.17088301  0.98281040    -0.22500
H223        H  0.33783111  0.20665478  0.96227001     0.19400
H224        H  0.19839224  0.34040841  0.01910760     0.18200
H225        H  0.28855156  0.41248248  0.01526745     0.14400
H226        H  0.24889225  0.13305528  0.97244199     0.14300
H227        H  0.40240038  0.29611742  0.96144508     0.32500
H228        H  0.13296761  0.25107456  0.01739226     0.35200
C229        C  0.78613648  0.00460837  0.74473634     0.20800
C230        C  0.77262714  0.02077004  0.69269075    -0.39100
C231        C  0.72063484  0.00803344  0.67604089     0.19800
C232        C  0.68535874  0.98062862  0.70847130     0.22400
C233        C  0.69853053  0.96538421  0.76070644    -0.39600
C234        C  0.75004614  0.97879315  0.77764176     0.21200
N235        N  0.83268465  0.01219826  0.77026864    -0.32800
C236        C  0.82563544  0.99209291  0.82008680    -0.10400
C237        C  0.77461767  0.97089758  0.82616940    -0.29200
N238        N  0.63908261  0.97185373  0.68302183    -0.45800
C239        C  0.64419916  0.99428957  0.63397894    -0.05100
C240        C  0.69460518  0.01783523  0.62846563    -0.22500
H241        H  0.80046125  0.04171380  0.66713374     0.19400
H242        H  0.67059509  0.94473614  0.78637563     0.18200
H243        H  0.75779122  0.95234941  0.86138910     0.14400
H244        H  0.71016122  0.03928714  0.59432445     0.14300
H245        H  0.86666365  0.03109218  0.75524450     0.32500
H246        H  0.60615183  0.95116717  0.69800959     0.35200
C247        C  0.25422413  0.98665706  0.78552923     0.20800
C248        C  0.30550492  0.96803159  0.77242985    -0.39100
C249        C  0.32301866  0.97940320  0.72039626     0.19800
C250        C  0.29199121  0.00767962  0.68445199     0.22400
C251        C  0.24054763  0.02590482  0.69736691    -0.39600
C252        C  0.22273969  0.01388955  0.74913515     0.21200
N253        N  0.22816387  0.98014966  0.83198720    -0.32800
C254        C  0.17932406  0.00246367  0.82492470    -0.10400
C255        C  0.17445131  0.02399274  0.77368748    -0.29200
N256        N  0.31776517  0.01369015  0.63782259    -0.45800
C257        C  0.36553044  0.98871420  0.64363353    -0.05100
C258        C  0.37015042  0.96670555  0.69478016    -0.22500
H259        H  0.32981892  0.94597451  0.80057539     0.19400
H260        H  0.21599042  0.04738817  0.66898860     0.18200
H261        H  0.14015998  0.04408779  0.75668579     0.14400
H262        H  0.40344422  0.94434538  0.71092878     0.14300
H263        H  0.24222193  0.96046961  0.86599984     0.32500
H264        H  0.30383780  0.03406001  0.60416610     0.35200
C265        C  0.21489966  0.00573507  0.25428358     0.20800
C266        C  0.22784230  0.02020949  0.30682939    -0.39100
C267        C  0.27924656  0.00610443  0.32395776     0.19800
C268        C  0.31481334  0.97928732  0.29130859     0.22400
C269        C  0.30227164  0.96574615  0.23837521    -0.39600
C270        C  0.25102414  0.98028072  0.22109755     0.21200
N271        N  0.16847406  0.01417003  0.22888054    -0.32800
C272        C  0.17531382  0.99488029  0.17884353    -0.10400
C273        C  0.22638120  0.97348210  0.17235285    -0.29200
N274        N  0.36069328  0.96963143  0.31727904    -0.45800
C275        C  0.35481508  0.99096659  0.36673941    -0.05100
C276        C  0.30439788  0.01429725  0.37224896    -0.22500
H277        H  0.19986650  0.04079632  0.33252569     0.19400
H278        H  0.33033324  0.94538093  0.21258786     0.18200
H279        H  0.24303877  0.95521516  0.13690483     0.14400
H280        H  0.28855292  0.03501214  0.40670032     0.14300
H281        H  0.13450368  0.03277254  0.24432549     0.32500
H282        H  0.39410940  0.94975051  0.30220903     0.35200
C283        C  0.77490030  0.02131747  0.24815825     0.20800
C284        C  0.75848142  0.04168017  0.29779836    -0.39100
C285        C  0.70684104  0.02731157  0.31411972     0.19800
C286        C  0.67434039  0.99463339  0.28366282     0.22400
C287        C  0.69050949  0.97480769  0.23381355    -0.39600
C288        C  0.74178718  0.98981605  0.21711386     0.21200
N289        N  0.82207251  0.02896358  0.22369227    -0.32800
C290        C  0.81853724  0.00308497  0.17621939    -0.10400
C291        C  0.76903547  0.97818536  0.17074373    -0.29200
N292        N  0.62855475  0.98402158  0.30946951    -0.45800
C293        C  0.63184084  0.00989859  0.35690273    -0.05100
C294        C  0.67979665  0.03816513  0.36078008    -0.22500
H295        H  0.78419633  0.06641819  0.32215853     0.19400
H296        H  0.66515340  0.94924796  0.20993258     0.18200
H297        H  0.75497351  0.95464255  0.13735056     0.14400
H298        H  0.69392608  0.06148204  0.39430670     0.14300
H299        H  0.85423361  0.05139673  0.23783748     0.32500
H300        H  0.59795611  0.95877074  0.29664632     0.35200
C301        C  0.98977029  0.28521363  0.67718932     0.20800
C302        C  0.97122731  0.23416583  0.69178609    -0.38200
C303        C  0.98483400  0.21709025  0.74344265     0.19800
C304        C  0.01408910  0.24878824  0.77800516     0.22400
C305        C  0.03314906  0.29943897  0.76318182    -0.39600
C306        C  0.01983701  0.31636140  0.71149886     0.21200
N307        N  0.98108385  0.31121004  0.63097997    -0.32800
C308        C  0.00578372  0.35929759  0.63581648    -0.10400
C309        C  0.03063546  0.36377986  0.68550477    -0.29200
N310        N  0.02111062  0.22400273  0.82504766    -0.45800
C311        C  0.99702885  0.17575723  0.82020812    -0.05100
C312        C  0.97390855  0.16984336  0.76985676    -0.22500
H313        H  0.94777273  0.20968300  0.66500456     0.19400
H314        H  0.05628255  0.32406067  0.79011053     0.18200
H315        H  0.05295173  0.39753643  0.70075438     0.14400
H316        H  0.95208410  0.13568139  0.75475595     0.14300
H317        H  0.95857598  0.29761908  0.59864870     0.32500
H318        H  0.04206737  0.23849033  0.85803986     0.35200
C319        C  0.00860638  0.74380789  0.78788043     0.20800
C320        C  0.01746716  0.68956496  0.77586542    -0.39100
C321        C  0.01249174  0.67559816  0.72177417     0.19800
C322        C  0.99846731  0.71245607  0.68303634     0.22400
C323        C  0.99029385  0.76665749  0.69491047    -0.39600
C324        C  0.99638734  0.78085583  0.74862111     0.21200
N325        N  0.01142237  0.76765403  0.83594879    -0.32800
C326        C  0.00166022  0.82034462  0.82684947    -0.10400
C327        C  0.99226718  0.83001460  0.77286827    -0.29200
N328        N  0.99475981  0.68899250  0.63499855    -0.45800
C329        C  0.00751460  0.63670393  0.64258618    -0.05100
C330        C  0.01930298  0.62714473  0.69641696    -0.22500
H331        H  0.02773764  0.66050144  0.80624691     0.19400
H332        H  0.98026732  0.79574402  0.66447569     0.18200
H333        H  0.98347267  0.86797436  0.75392637     0.14400
H334        H  0.03135216  0.58978711  0.71471431     0.14300
H335        H  0.02010588  0.74939880  0.87245333     0.32500
H336        H  0.98307296  0.70751110  0.59949449     0.35200
C337        C  0.01530982  0.68510710  0.29088133     0.20800
C338        C  0.02449072  0.69740211  0.23710653    -0.39100
C339        C  0.01397737  0.75044575  0.22226270     0.19800
C340        C  0.99624771  0.78855476  0.25825587     0.22400
C341        C  0.98673007  0.77613505  0.31199922    -0.39600
C342        C  0.99673681  0.72288631  0.32672456     0.21200
N343        N  0.02175793  0.63745871  0.31483608    -0.32800
C344        C  0.00665558  0.64467353  0.36631964    -0.10400
C345        C  0.99067298  0.69754710  0.37507877    -0.29200
N346        N  0.98938851  0.83608901  0.23403431    -0.45800
C347        C  0.00236314  0.82782646  0.18218032    -0.05100
C348        C  0.01785917  0.77496396  0.17334739    -0.22500
H349        H  0.03839403  0.66777574  0.20882679     0.19400
H350        H  0.97231854  0.80561835  0.34016759     0.18200
H351        H  0.97590348  0.71495008  0.41174939     0.14400
H352        H  0.03043742  0.75698447  0.13612283     0.14300
H353        H  0.03585443  0.60230489  0.29719892     0.32500
H354        H  0.97610257  0.87165229  0.25149378     0.35200
C355        C  0.00465963  0.25978865  0.21440601     0.20800
C356        C  0.01934412  0.31228966  0.22813951    -0.39100
C357        C  0.00629565  0.32828252  0.28024945     0.19800
C358        C  0.97998676  0.29483446  0.31553654     0.22400
C359        C  0.96561551  0.24241007  0.30193604    -0.39600
C360        C  0.97940824  0.22612589  0.25028718     0.21200
N361        N  0.01356729  0.23435641  0.16793765    -0.32800
C362        C  0.99461636  0.18393952  0.17479991    -0.10400
C363        C  0.97303749  0.17736989  0.22562440    -0.29200
N364        N  0.97241184  0.31915855  0.36264870    -0.45800
C365        C  0.99462877  0.36835178  0.35780389    -0.05100
C366        C  0.01614921  0.37552903  0.30684115    -0.22500
H367        H  0.03998754  0.33845026  0.20059783     0.19400
H368        H  0.94589155  0.21593311  0.32984522     0.18200
H369        H  0.95506129  0.14167978  0.24223856     0.14400
H370        H  0.03689712  0.41033237  0.29166333     0.14300
H371        H  0.03233660  0.24991547  0.13411194     0.32500
H372        H  0.95327605  0.30318554  0.39607020     0.35200
loop_ 
_geom_bond_atom_site_label_1 
_geom_bond_atom_site_label_2 
_geom_bond_distance 
_geom_bond_site_symmetry_2 
_ccdc_geom_bond_type 
N1            C6   1.351   1_455  A
N1            C5   1.350   1_455  A
N1           H33   1.042       .  S
N2            C9   1.352   1_655  A
N2           C10   1.353   1_655  A
N3            C8   1.353   1_455  A
N3            C7   1.352   1_455  A
N3           H34   1.043       .  S
N4           C11   1.351       .  A
N4           C12   1.351       .  A
C5           C13   1.388       .  A
C5           C21   1.412       .  A
C6           C22   1.412   1_655  A
C6           C14   1.388       .  A
C7           C15   1.385       .  A
C7           C24   1.411   1_655  A
C8           C23   1.415   1_655  A
C8           C16   1.388       .  A
C9           C21   1.414   1_455  A
C9           C17   1.386       .  A
C10          C24   1.411       .  A
C10          C18   1.384       .  A
C11          C19   1.386       .  A
C11          C22   1.412       .  A
C12          C20   1.386       .  A
C12          C23   1.413       .  A
C13          C14   1.378       .  A
C13          H25   1.082       .  S
C14          H26   1.082       .  S
C15          C16   1.377       .  A
C15          H27   1.082       .  S
C16          H28   1.082       .  S
C17          C18   1.374       .  A
C17          H29   1.082       .  S
C18          H30   1.082       .  S
C19          C20   1.376       .  A
C19          H31   1.082       .  S
C20          H32   1.082       .  S
C21         C365   1.487       .  S
C22         C344   1.488       .  S
C23         C329   1.496       .  S
C24         C308   1.491       .  S
O35         Zr71   2.441   1_554  S
O35          C46   1.292       .  A
O36         Zr70   2.435   1_455  S
O36          C47   1.291       .  A
O37         Zr43   2.450       .  S
O37          C48   1.294       .  A
O38         Zr43   2.451   1_455  S
O38          C49   1.294   1_545  A
O39         Zr73   2.431   1_565  S
O39          C49   1.291       .  A
O40         Zr72   2.451   1_554  S
O40          C48   1.294   1_565  A
O41         Zr43   2.436   1_565  S
O41          C47   1.291   1_655  A
O42         Zr43   2.445       .  S
O42          C46   1.293       .  A
Zr43         O44   2.342   1_645  S
Zr43         O45   2.338       .  S
Zr43         O53   2.346   1_655  S
Zr43         O51   2.351   1_545  S
O44         Zr70   2.335   1_455  S
O44         Zr73   2.338   1_565  S
O45         Zr71   2.345   1_554  S
O45         Zr72   2.350   1_544  S
C46         C362   1.473       .  S
C47         C347   1.468       .  S
C48         C290   1.477       .  S
C49         C272   1.471       .  S
H50          O51   0.963       .  S
O51         Zr70   2.342       .  S
O51         Zr72   2.339   1_554  S
H52          O53   0.963       .  S
O53         Zr71   2.346   1_454  S
O53         Zr73   2.352       .  S
O54         Zr70   2.443   1_456  S
O54          C77   1.292       .  A
O55         Zr71   2.443   1_455  S
O55          C78   1.293   1_455  A
O56         Zr72   2.440       .  S
O56          C79   1.291       .  A
O57         Zr73   2.446   1_565  S
O57          C80   1.293       .  A
O58         Zr73   2.450   1_556  S
O58          C81   1.294       .  A
O59         Zr72   2.428   1_545  S
O59          C82   1.290       .  A
O60         Zr74   2.432   1_655  S
O60          C83   1.290       .  A
O61         Zr74   2.449   1_545  S
O61          C84   1.294       .  A
O62         Zr72   2.446       .  S
O62          C83   1.293       .  A
O63         Zr73   2.444   1_566  S
O63          C84   1.292   1_565  A
O64         Zr70   2.434       .  S
O64          C79   1.290   1_554  A
O65         Zr71   2.457       .  S
O65          C82   1.296       .  A
O66         Zr71   2.456   1_455  S
O66          C81   1.295       .  A
O67         Zr70   2.425   1_455  S
O67          C80   1.289       .  A
O68         Zr74   2.438       .  S
O68          C77   1.293       .  A
O69         Zr74   2.435   1_645  S
O69          C78   1.291       .  A
Zr70         O76   2.336   1_554  S
Zr70         O88   2.347   1_654  S
Zr71         O75   2.344   1_655  S
Zr71         O86   2.347       .  S
Zr72         O76   2.334       .  S
Zr72         O86   2.344   1_565  S
Zr73         O75   2.339   1_554  S
Zr73         O88   2.338   1_544  S
Zr74         O75   2.338   1_565  S
Zr74         O76   2.343   1_455  S
Zr74         O88   2.341       .  S
Zr74         O86   2.340   1_465  S
C77         C326   1.473       .  S
C78         C311   1.469       .  S
C79         C164   1.467       .  S
C80         C203   1.468       .  S
C81         C221   1.483       .  S
C82         C185   1.472       .  S
C83         C236   1.471       .  S
C84         C254   1.477       .  S
H85          O86   0.965       .  S
H87          O88   0.964       .  S
N89          C94   1.355   1_565  A
N89          C93   1.355   1_565  A
N89         H121   1.041       .  S
N90          C97   1.352       .  A
N90          C98   1.353       .  A
N91          C96   1.356       .  A
N91          C95   1.356   1_565  A
N91         H122   1.042       .  S
N92          C99   1.354       .  A
N92         C100   1.352       .  A
C93         C101   1.386       .  A
C93         C109   1.417       .  A
C94         C110   1.418   1_545  A
C94         C102   1.388       .  A
C95         C103   1.386       .  A
C95         C112   1.418   1_545  A
C96         C111   1.419       .  A
C96         C104   1.387   1_565  A
C97         C109   1.414   1_565  A
C97         C105   1.386       .  A
C98         C112   1.414       .  A
C98         C106   1.386       .  A
C99         C107   1.387       .  A
C99         C110   1.416       .  A
C100        C108   1.386       .  A
C100        C111   1.414       .  A
C101        C102   1.376       .  A
C101        H113   1.082       .  S
C102        H114   1.082       .  S
C103        C104   1.376       .  A
C103        H115   1.082       .  S
C104        H116   1.082       .  S
C105        C106   1.372       .  A
C105        H117   1.082       .  S
C106        H118   1.081       .  S
C107        C108   1.374       .  A
C107        H119   1.082       .  S
C108        H120   1.082       .  S
C109        C293   1.491       .  S
C110        C275   1.494       .  S
C111        C257   1.496       .  S
C112        C239   1.497       .  S
N123        C128   1.354   1_556  A
N123        C127   1.354   1_556  A
N123        H155   1.043       .  S
N124        C131   1.352       .  A
N124        C132   1.352       .  A
N125        C130   1.349   1_556  A
N125        C129   1.351   1_556  A
N125        H156   1.042       .  S
N126        C133   1.351   1_554  A
N126        C134   1.350   1_554  A
C127        C135   1.387       .  A
C127        C143   1.416   1_554  A
C128        C144   1.416   1_554  A
C128        C136   1.387       .  A
C129        C137   1.388       .  A
C129        C146   1.413   1_554  A
C130        C145   1.408       .  A
C130        C138   1.386       .  A
C131        C143   1.414       .  A
C131        C139   1.386       .  A
C132        C146   1.411       .  A
C132        C140   1.384       .  A
C133        C141   1.388       .  A
C133        C144   1.414       .  A
C134        C142   1.384       .  A
C134        C145   1.408   1_556  A
C135        C136   1.379       .  A
C135        H147   1.082       .  S
C136        H148   1.082       .  S
C137        C138   1.377       .  A
C137        H149   1.082       .  S
C138        H150   1.082       .  S
C139        C140   1.375       .  A
C139        H151   1.082       .  S
C140        H152   1.082       .  S
C141        C142   1.375       .  A
C141        H153   1.082       .  S
C142        H154   1.082       .  S
C143        C218   1.498       .  S
C144        C182   1.496   1_556  S
C145        C167   1.479       .  S
C146        C200   1.490       .  S
C157        N163   1.343       .  A
C157        C162   1.385   1_556  A
C157        C158   1.402       .  A
C158        C159   1.401       .  A
C158        H169   1.082       .  S
C159        C168   1.374       .  A
C159        C160   1.385   1_556  A
C160        N166   1.343       .  A
C160        C161   1.402       .  A
C161        C162   1.402       .  A
C161        H170   1.082       .  S
C162        C165   1.376       .  A
N163        C164   1.355       .  A
N163        H173   1.045       .  S
C164        C165   1.394   1_556  A
C165        H171   1.082       .  S
N166        C167   1.355       .  A
N166        H174   1.045       .  S
C167        C168   1.394   1_554  A
C168        H172   1.082       .  S
C175        N181   1.344       .  A
C175        C180   1.382   1_556  A
C175        C176   1.405       .  A
C176        C177   1.404       .  A
C176        H187   1.082       .  S
C177        C186   1.379       .  A
C177        C178   1.384   1_556  A
C178        N184   1.342       .  A
C178        C179   1.402       .  A
C179        C180   1.401       .  A
C179        H188   1.082       .  S
C180        C183   1.375       .  A
N181        C182   1.359   1_556  A
N181        H191   1.044       .  S
C182        C183   1.399       .  A
C183        H189   1.082       .  S
N184        C185   1.354   1_554  A
N184        H192   1.045       .  S
C185        C186   1.398       .  A
C186        H190   1.083       .  S
C193        N199   1.343       .  A
C193        C198   1.383   1_554  A
C193        C194   1.404       .  A
C194        C195   1.403       .  A
C194        H205   1.082       .  S
C195        C204   1.379       .  A
C195        C196   1.385   1_554  A
C196        N202   1.341       .  A
C196        C197   1.402       .  A
C197        C198   1.401       .  A
C197        H206   1.082       .  S
C198        C201   1.376       .  A
N199        C200   1.357   1_554  A
N199        H209   1.045       .  S
C200        C201   1.398       .  A
C201        H207   1.082       .  S
N202        C203   1.354   1_556  A
N202        H210   1.045       .  S
C203        C204   1.397       .  A
C204        H208   1.083       .  S
C211        N217   1.346       .  A
C211        C216   1.382       .  A
C211        C212   1.406       .  A
C212        C213   1.406       .  A
C212        H223   1.082       .  S
C213        C222   1.381       .  A
C213        C214   1.384       .  A
C214        N220   1.347   1_556  A
C214        C215   1.406   1_556  A
C215        C216   1.405   1_554  A
C215        H224   1.082       .  S
C216        C219   1.379   1_556  A
N217        C218   1.359       .  A
N217        H227   1.044       .  S
C218        C219   1.400   1_556  A
C219        H225   1.082       .  S
N220        C221   1.358   1_554  A
N220        H228   1.045       .  S
C221        C222   1.398       .  A
C222        H226   1.082       .  S
C229        N235   1.345       .  A
C229        C234   1.384   1_545  A
C229        C230   1.406       .  A
C230        C231   1.406       .  A
C230        H241   1.082       .  S
C231        C240   1.381       .  A
C231        C232   1.383   1_545  A
C232        N238   1.343       .  A
C232        C233   1.402       .  A
C233        C234   1.401       .  A
C233        H242   1.082       .  S
C234        C237   1.377       .  A
N235        C236   1.357   1_545  A
N235        H245   1.045       .  S
C236        C237   1.394       .  A
C237        H243   1.083       .  S
N238        C239   1.357       .  A
N238        H246   1.045       .  S
C239        C240   1.402   1_565  A
C240        H244   1.082       .  S
C247        N253   1.345       .  A
C247        C252   1.384   1_565  A
C247        C248   1.406       .  A
C248        C249   1.405       .  A
C248        H259   1.082       .  S
C249        C258   1.382       .  A
C249        C250   1.383   1_565  A
C250        N256   1.344       .  A
C250        C251   1.406       .  A
C251        C252   1.405       .  A
C251        H260   1.082       .  S
C252        C255   1.382       .  A
N253        C254   1.357   1_565  A
N253        H263   1.045       .  S
C254        C255   1.397       .  A
C255        H261   1.082       .  S
N256        C257   1.358   1_545  A
N256        H264   1.045       .  S
C257        C258   1.399       .  A
C258        H262   1.082       .  S
C265        N271   1.343       .  A
C265        C270   1.384   1_545  A
C265        C266   1.404       .  A
C266        C267   1.403       .  A
C266        H277   1.082       .  S
C267        C276   1.380       .  A
C267        C268   1.383   1_545  A
C268        N274   1.343       .  A
C268        C269   1.405       .  A
C269        C270   1.404       .  A
C269        H278   1.082       .  S
C270        C273   1.380       .  A
N271        C272   1.355   1_545  A
N271        H281   1.045       .  S
C272        C273   1.397       .  A
C273        H279   1.083       .  S
N274        C275   1.358       .  A
N274        H282   1.045       .  S
C275        C276   1.399   1_565  A
C276        H280   1.082       .  S
C283        N289   1.346       .  A
C283        C288   1.384   1_545  A
C283        C284   1.406       .  A
C284        C285   1.405       .  A
C284        H295   1.082       .  S
C285        C294   1.379       .  A
C285        C286   1.384   1_545  A
C286        N292   1.345       .  A
C286        C287   1.404       .  A
C287        C288   1.404       .  A
C287        H296   1.082       .  S
C288        C291   1.379       .  A
N289        C290   1.357       .  A
N289        H299   1.045       .  S
C290        C291   1.396   1_545  A
C291        H297   1.082       .  S
N292        C293   1.356   1_565  A
N292        H300   1.045       .  S
C293        C294   1.399       .  A
C294        H298   1.082       .  S
C301        N307   1.345       .  A
C301        C306   1.384   1_655  A
C301        C302   1.406       .  A
C302        C303   1.405       .  A
C302        H313   1.082       .  S
C303        C312   1.380       .  A
C303        C304   1.385   1_655  A
C304        N310   1.343       .  A
C304        C305   1.403       .  A
C305        C306   1.402       .  A
C305        H314   1.082       .  S
C306        C309   1.378       .  A
N307        C308   1.357   1_655  A
N307        H317   1.045       .  S
C308        C309   1.397       .  A
C309        H315   1.082       .  S
N310        C311   1.354   1_455  A
N310        H318   1.045       .  S
C311        C312   1.397       .  A
C312        H316   1.083       .  S
C319        N325   1.346       .  A
C319        C324   1.384   1_455  A
C319        C320   1.405       .  A
C320        C321   1.406       .  A
C320        H331   1.082       .  S
C321        C330   1.378       .  A
C321        C322   1.383   1_455  A
C322        N328   1.343       .  A
C322        C323   1.401       .  A
C323        C324   1.401       .  A
C323        H332   1.082       .  S
C324        C327   1.374       .  A
N325        C326   1.357       .  A
N325        H335   1.045       .  S
C326        C327   1.394   1_455  A
C327        H333   1.082       .  S
N328        C329   1.357   1_655  A
N328        H336   1.044       .  S
C329        C330   1.401       .  A
C330        H334   1.082       .  S
C337        N343   1.342       .  A
C337        C342   1.384   1_455  A
C337        C338   1.401       .  A
C338        C339   1.401       .  A
C338        H349   1.082       .  S
C339        C348   1.373       .  A
C339        C340   1.385   1_455  A
C340        N346   1.344       .  A
C340        C341   1.403       .  A
C341        C342   1.402       .  A
C341        H350   1.082       .  S
C342        C345   1.375       .  A
N343        C344   1.357       .  A
N343        H353   1.045       .  S
C344        C345   1.397   1_455  A
C345        H351   1.082       .  S
N346        C347   1.356   1_655  A
N346        H354   1.045       .  S
C347        C348   1.394       .  A
C348        H352   1.083       .  S
C355        N361   1.346       .  A
C355        C360   1.385   1_455  A
C355        C356   1.405       .  A
C356        C357   1.405       .  A
C356        H367   1.082       .  S
C357        C366   1.378       .  A
C357        C358   1.384   1_455  A
C358        N364   1.342       .  A
C358        C359   1.401       .  A
C359        C360   1.400       .  A
C359        H368   1.082       .  S
C360        C363   1.375       .  A
N361        C362   1.357   1_455  A
N361        H371   1.045       .  S
C362        C363   1.394       .  A
C363        H369   1.082       .  S
N364        C365   1.355       .  A
N364        H372   1.045       .  S
C365        C366   1.398   1_655  A
C366        H370   1.082       .  S
