geometry optimzed in LAMMPS
_audit_creation_date              2020-11-30 
_audit_creation_method            'lammps2cif' 
_symmetry_space_group_name_H-M    'P1' 
_symmetry_Int_Tables_number       1 
_symmetry_cell_setting            triclinic 
loop_ 
_symmetry_equiv_pos_as_xyz 
  x,y,z 
_cell_length_a                    42.57499624790175 
_cell_length_b                    42.50085940825931 
_cell_length_c                    30.012611564726225 
_cell_angle_alpha                 90.2056304269476 
_cell_angle_beta                  89.44999239203885 
_cell_angle_gamma                 90.32644235481627 
loop_ 
_atom_site_label 
_atom_site_type_symbol 
_atom_site_fract_x 
_atom_site_fract_y 
_atom_site_fract_z 
_atom_site_charge 
O1          O  0.42010315  0.49655384  0.41795574    -0.74950
O2          O  0.41279232  0.04426814  0.45099315    -0.53860
C3          C  0.40366753  0.02126103  0.42608758     0.78770
O4          O  0.49352934  0.42480875  0.58326241    -0.59550
O5          O  0.03953380  0.41573811  0.54612983    -0.52580
C6          C  0.01698273  0.40733194  0.57259664     0.70790
O7          O  0.41691995  0.49493528  0.57742847    -0.74110
O8          O  0.41053981  0.04243828  0.54370250    -0.54680
C9          C  0.40049457  0.01919720  0.56774237     0.76790
O10         O  0.49343039  0.42318781  0.41867159    -0.59260
O11         O  0.03984476  0.41528924  0.45439924    -0.52380
C12         C  0.01696833  0.40612480  0.42941874     0.73380
Zr13       Zr  0.47153232  0.47466587  0.43242473     2.54710
O14         O  0.43167103  0.43439231  0.41999910    -0.79820
O15         O  0.47892588  0.48088841  0.35240997    -0.93240
Zr16       Zr  0.46912470  0.47424478  0.56415229     2.64680
O17         O  0.43147198  0.43114608  0.56159325    -0.98190
O18         O  0.46857046  0.47760602  0.64516233    -0.80260
O19         O  0.44838705  0.49542919  0.49800063    -0.83610
O20         O  0.49143771  0.45294404  0.49878830    -2.18320
O21         O  0.08736983  0.01559823  0.41821769    -0.67000
O22         O  0.09340602  0.46831541  0.45324358    -0.51570
C23         C  0.10313704  0.49088144  0.42799104     0.71770
O24         O  0.01002677  0.08946525  0.58224950    -0.59910
O25         O  0.46332655  0.09673740  0.54767058    -0.51890
C26         C  0.48534568  0.10557177  0.57437614     0.73570
O27         O  0.08280757  0.01653273  0.58318495    -0.71310
O28         O  0.09227269  0.46948905  0.54991991    -0.49980
C29         C  0.10002955  0.49246795  0.57611419     0.74950
O30         O  0.01310104  0.08931581  0.41736852    -0.66640
O31         O  0.46529662  0.09637600  0.45047521    -0.53830
C32         C  0.48809001  0.10534672  0.42472293     0.73330
Zr33       Zr  0.03618048  0.03877751  0.43382175     2.77540
O34         O  0.07565234  0.08032883  0.42768231    -0.97390
O35         O  0.03224719  0.03298280  0.35334532    -0.78210
Zr36       Zr  0.03308766  0.03915103  0.56528036     2.70070
O37         O  0.07285930  0.08024494  0.57143652    -0.79450
O38         O  0.02834346  0.03364231  0.64581230    -0.98540
Zr39       Zr  0.45843351  0.05057703  0.49872655     2.21500
Zr40       Zr  0.04672114  0.46273809  0.50031907     2.11130
O41         O  0.05674050  0.01814184  0.50029243    -2.47220
O42         O  0.01350717  0.06096174  0.49907884    -0.79250
O43         O  0.02653212  0.48383122  0.43226636    -0.71440
O44         O  0.47848173  0.02913569  0.56618335    -2.32400
O45         O  0.48129629  0.02936226  0.43170714    -2.28610
O46         O  0.02381482  0.48423765  0.56689832    -0.73200
H47         H  0.48694760  0.43068547  0.49915115     0.78800
H48         H  0.46842717  0.03855318  0.59190681     0.79880
H49         H  0.07897651  0.02265086  0.50088784     0.82110
H50         H  0.47224198  0.03877945  0.40558190     0.79720
H51         H  0.45580151  0.49641078  0.65217081     0.42750
H52         H  0.00585989  0.03715828  0.65271909     0.41720
H53         H  0.07801377  0.08581910  0.54019474     0.41400
H54         H  0.09189572  0.07483433  0.44968703     0.39330
H55         H  0.04311304  0.01297966  0.34649700     0.42460
H56         H  0.46256935  0.49603929  0.34353833     0.37250
H57         H  0.42529656  0.42763329  0.45032435     0.43370
H58         H  0.44063381  0.41503298  0.54151767     0.39780
H59         H  0.08587243  0.07698224  0.39828374     0.44700
H60         H  0.47190239  0.46055761  0.33961498     0.43420
H61         H  0.43183428  0.42172302  0.59169895     0.43560
H62         H  0.03159066  0.01096209  0.65145756     0.43920
C63         C  0.48635747  0.22908557  0.34329989     0.03470
C64         C  0.49443455  0.25578712  0.36858177    -0.12680
C65         C  0.49920893  0.28491394  0.34761899     0.00970
C66         C  0.49565183  0.28743022  0.30143457    -0.11210
C67         C  0.48725831  0.26106636  0.27612851     0.03460
C68         C  0.48270087  0.23199209  0.29700356    -0.10630
H69         H  0.49756153  0.25386025  0.40425626     0.09050
H70         H  0.49932501  0.30992946  0.28521755     0.06580
H71         H  0.47707777  0.21144860  0.27703128     0.06430
C72         C  0.22459693  0.00839905  0.34520978     0.03470
C73         C  0.25406098  0.01012581  0.36618263    -0.12680
C74         C  0.28134955  0.01780299  0.34165068     0.00970
C75         C  0.27920021  0.02315456  0.29565573    -0.11210
C76         C  0.25034882  0.02046038  0.27421508     0.03460
C77         C  0.22314924  0.01368400  0.29901474    -0.10630
H78         H  0.25603871  0.00464015  0.40124392     0.09050
H79         H  0.30016078  0.02842534  0.27623188     0.06580
H80         H  0.20089186  0.01191962  0.28193040     0.06430
C81         C  0.22306366  0.00356788  0.65735299     0.03470
C82         C  0.25008668  0.01054899  0.63197249    -0.12680
C83         C  0.27806847  0.01959573  0.65317102     0.00970
C84         C  0.27894449  0.02159016  0.69984295    -0.11210
C85         C  0.25221839  0.01408774  0.72524835     0.03460
C86         C  0.22454373  0.00502612  0.70401577    -0.10630
H87         H  0.24937118  0.00917668  0.59593472     0.09050
H88         H  0.30065378  0.02782953  0.71635615     0.06580
H89         H  0.20380018  0.99975170  0.72394245     0.06430
C90         C  0.48932247  0.22944263  0.65680953     0.03470
C91         C  0.49822882  0.25617575  0.63204474    -0.12680
C92         C  0.50376545  0.28499406  0.65374330     0.00970
C93         C  0.50092747  0.28705608  0.70017344    -0.11210
C94         C  0.49217076  0.26068696  0.72500096     0.03460
C95         C  0.48609694  0.23213195  0.70339407    -0.10630
H96         H  0.50087134  0.25469409  0.59617120     0.09050
H97         H  0.50484639  0.30938743  0.71686896     0.06580
H98         H  0.47927324  0.21182719  0.72307126     0.06430
C99         C  0.24964623  0.48998099  0.15637072     0.03470
C100        C  0.25398642  0.49208292  0.20253844    -0.12680
C101        C  0.24903298  0.02035202  0.22527714     0.00970
C102        C  0.24080297  0.04733967  0.20168375    -0.11210
C103        C  0.23582768  0.04590165  0.15535142     0.03460
C104        C  0.24035781  0.01694656  0.13293378    -0.10630
H105        H  0.26036470  0.47131080  0.22121481     0.09050
H106        H  0.23833454  0.06935057  0.21961136     0.06580
H107        H  0.23580580  0.01515756  0.09756566     0.06430
O108        O  0.22761324  0.35043991  0.92193309    -0.74950
O109        O  0.27460973  0.35802541  0.95571880    -0.53860
C110        C  0.25188781  0.36723134  0.93062608     0.78770
O111        O  0.15475840  0.27365158  0.08343674    -0.59550
O112        O  0.14522469  0.22807557  0.04595560    -0.52580
C113        C  0.13708389  0.25018807  0.07324103     0.70790
O114        O  0.22783267  0.34861223  0.08324727    -0.74110
O115        O  0.27546104  0.35649483  0.04998062    -0.54680
C116        C  0.25257627  0.36523249  0.07566194     0.76790
O117        O  0.15401984  0.27610024  0.91756633    -0.59260
O118        O  0.14582793  0.22897486  0.95193215    -0.52380
C119        C  0.13710028  0.25171369  0.92664842     0.73380
Zr120      Zr  0.20415475  0.29976858  0.93664795     2.54710
O121        O  0.16252210  0.33852496  0.94310575    -0.79820
O122        O  0.20599906  0.30015649  0.85553564    -0.93240
Zr123      Zr  0.20521739  0.29739120  0.06752190     2.64680
O124        O  0.16605799  0.33855187  0.07703358    -0.98190
O125        O  0.20976980  0.29147639  0.14784291    -0.80260
O126        O  0.22648843  0.32044174  0.00246137    -0.83610
O127        O  0.18255188  0.27735817  0.00160131    -2.18320
O128        O  0.24443008  0.18635254  0.91373362    -0.67000
O129        O  0.19862443  0.17549189  0.94989982    -0.51570
C130        C  0.22118785  0.16812397  0.92273788     0.71770
O131        O  0.31884897  0.25409160  0.07895388    -0.59910
O132        O  0.32768140  0.30235113  0.04884229    -0.51770
C133        C  0.33586939  0.27869094  0.07308136     0.73570
O134        O  0.24453919  0.18075491  0.07800955    -0.71310
O135        O  0.19681225  0.17512249  0.04448625    -0.49980
C136        C  0.21948443  0.16512525  0.06868978     0.74950
O137        O  0.31893350  0.25846910  0.91649058    -0.66640
O138        O  0.32765184  0.30509993  0.95180365    -0.53830
C139        C  0.33577689  0.28286066  0.92462681     0.73330
Zr140      Zr  0.26803041  0.23602178  0.93228906     2.77540
O141        O  0.30910292  0.19708696  0.92034755    -0.97390
O142        O  0.26117844  0.24396034  0.85271376    -0.78210
Zr143      Zr  0.26786019  0.23215714  0.06356043     2.70070
O144        O  0.30730667  0.19110791  0.06799520    -0.79450
O145        O  0.26241368  0.23538366  0.14426826    -0.98540
Zr146      Zr  0.28158448  0.31049128  0.00123118     2.21500
Zr147      Zr  0.19194220  0.22198115  0.99840078     2.11130
O148        O  0.24707272  0.21195040  0.99689997    -2.47220
O149        O  0.29038115  0.25510265  0.99880956    -0.79250
O150        O  0.21331757  0.24505543  0.93197040    -0.71440
O151        O  0.25972804  0.28724797  0.06760993    -2.32400
O152        O  0.25899711  0.29061815  0.93374928    -2.28610
O153        O  0.21340383  0.24226121  0.06632985    -0.73200
H154        H  0.16036013  0.28186342  0.00188653     0.78800
H155        H  0.26935199  0.29601328  0.09393477     0.79880
H156        H  0.25143711  0.18970840  0.99577893     0.82110
H157        H  0.26837017  0.30052758  0.90788933     0.79720
H158        H  0.23030592  0.30108778  0.15526135     0.42750
H159        H  0.23946333  0.23540406  0.14981418     0.41720
H160        H  0.31034330  0.18404772  0.03677848     0.41400
H161        H  0.30301204  0.17891728  0.93917034     0.39330
H162        H  0.24058345  0.23418825  0.84602350     0.42460
H163        H  0.22591910  0.31106143  0.84782116     0.37250
H164        H  0.16689351  0.34975177  0.97135747     0.43370
H165        H  0.14903009  0.33300167  0.05613020     0.39780
H166        H  0.30632911  0.18966451  0.88932214     0.44700
H167        H  0.18939084  0.31511197  0.84695214     0.43420
H168        H  0.15687497  0.33504838  0.10705455     0.43560
H169        H  0.26921588  0.21451060  0.15491285     0.43920
C170        C  0.45802543  0.27260896  0.15843883     0.03470
C171        C  0.45858122  0.27077812  0.20532249    -0.12680
C172        C  0.48630121  0.26327507  0.22735763     0.00970
C173        C  0.01369917  0.25800755  0.20286370    -0.11210
C174        C  0.01404611  0.26103866  0.15640552     0.03460
C175        C  0.48603069  0.26779662  0.13401418    -0.10630
H176        H  0.43726544  0.27452398  0.22462017     0.09050
H177        H  0.03514653  0.25226179  0.22020655     0.06580
H178        H  0.48602880  0.26908174  0.09797203     0.06430
C179        C  0.25565128  0.48983768  0.84593602     0.03470
C180        C  0.25825249  0.48890552  0.79929897    -0.12680
C181        C  0.25262839  0.01586117  0.77413072     0.00970
C182        C  0.24432459  0.04383731  0.79560219    -0.11210
C183        C  0.24220188  0.04534340  0.84230477     0.03460
C184        C  0.24760384  0.01812676  0.86748258    -0.10630
H185        H  0.26323406  0.46682836  0.78251695     0.09050
H186        H  0.23945885  0.06454986  0.77588717     0.06580
H187        H  0.24518473  0.01883195  0.90344841     0.06430
C188        C  0.45936203  0.27205855  0.84167802     0.03470
C189        C  0.46199514  0.27143726  0.79477183    -0.12680
C190        C  0.49008437  0.26269981  0.77377215     0.00970
C191        C  0.01637441  0.25591108  0.79926326    -0.11210
C192        C  0.01467805  0.25748776  0.84574674     0.03460
C193        C  0.48609457  0.26487684  0.86703743    -0.10630
H194        H  0.44204515  0.27732746  0.77432130     0.09050
H195        H  0.03846422  0.25029065  0.78287300     0.06580
H196        H  0.48488884  0.26488264  0.90307127     0.06430
C197        C  0.23613206  0.07613403  0.86394492     0.00180
C198        C  0.20978704  0.08065454  0.89191221    -0.11690
C199        C  0.20330105  0.11043764  0.91074525     0.02420
C200        C  0.22331477  0.13633842  0.90110181     0.00100
C201        C  0.24931646  0.13120156  0.87236701    -0.11630
C202        C  0.25617783  0.10171477  0.85495771     0.02300
H203        H  0.19422481  0.06095097  0.89884077     0.15280
H204        H  0.26542319  0.15015366  0.86401954     0.15280
C205        C  0.28492156  0.09810232  0.82937382     0.36940
C206        C  0.17633637  0.11343861  0.93988114     0.36840
N207        N  0.30797940  0.09514692  0.80909420    -0.43410
N208        N  0.15467550  0.11570869  0.96324222    -0.43400
C209        C  0.25280457  0.39933951  0.91002285     0.00180
C210        C  0.27970961  0.41862777  0.91442362    -0.11690
C211        C  0.28121376  0.44861152  0.89461972     0.02420
C212        C  0.25540430  0.45985442  0.87051429     0.00100
C213        C  0.22860822  0.44121037  0.86660353    -0.11630
C214        C  0.22691832  0.41140471  0.88553336     0.02300
H215        H  0.29979345  0.41018235  0.93270369     0.15280
H216        H  0.20887291  0.44994510  0.84768438     0.15280
C217        C  0.19802469  0.39432391  0.87779203     0.36940
C218        C  0.30963408  0.46704731  0.89821913     0.36840
N219        N  0.17465982  0.38132507  0.87055000    -0.43410
N220        N  0.33244075  0.48184821  0.90089446    -0.43400
C221        C  0.36695434  0.27854919  0.09612375     0.00180
C222        C  0.39095041  0.29978475  0.08342760    -0.11690
C223        C  0.42090550  0.29859604  0.10301795     0.02420
C224        C  0.42729152  0.27577081  0.13580710     0.00100
C225        C  0.40344204  0.25494971  0.14864805    -0.11630
C226        C  0.37370339  0.25616389  0.12996518     0.02300
H227        H  0.38648293  0.31714239  0.05790993     0.15280
H228        H  0.40817125  0.23727837  0.17371725     0.15280
C229        C  0.35101659  0.23384352  0.14740261     0.36940
C230        C  0.44430366  0.32154147  0.08995099     0.36840
N231        N  0.33341529  0.21561822  0.16184196    -0.43410
N232        N  0.46306293  0.33998512  0.07956982    -0.43400
C233        C  0.10504171  0.25076373  0.09406428     0.00180
C234        C  0.09925467  0.27420792  0.12650257    -0.11690
C235        C  0.06959832  0.27865399  0.14508708     0.02420
C236        C  0.04456907  0.25883593  0.13269702     0.00100
C237        C  0.04971265  0.23541009  0.10035427    -0.11630
C238        C  0.07962721  0.23125042  0.08084050     0.02300
H239        H  0.11791599  0.28980126  0.13741892     0.15280
H240        H  0.03046495  0.22002938  0.09091131     0.15280
C241        C  0.08322046  0.20701626  0.04744476     0.36940
C242        C  0.06537589  0.30428764  0.17640233     0.36840
N243        N  0.08592846  0.18747406  0.02076370    -0.43410
N244        N  0.06197936  0.32475927  0.20149030    -0.43400
C245        C  0.36676775  0.28390655  0.90100016     0.00180
C246        C  0.39270499  0.29917460  0.92034541    -0.11690
C247        C  0.42303521  0.29648615  0.90146167     0.02420
C248        C  0.42792608  0.27760407  0.86296267     0.00100
C249        C  0.40176844  0.26326264  0.84323919    -0.11630
C250        C  0.37161503  0.26684945  0.86078297     0.02300
H251        H  0.38946844  0.31262777  0.95079964     0.15280
H252        H  0.40481904  0.24864663  0.81382977     0.15280
C253        C  0.34624083  0.25276842  0.83582436     0.36940
C254        C  0.44838030  0.31388111  0.92175721     0.36840
N255        N  0.32629482  0.24135250  0.81530518    -0.43410
N256        N  0.46867473  0.32783319  0.93811831    -0.43400
C257        C  0.04413497  0.25562217  0.87094096     0.00180
C258        C  0.05655461  0.22626963  0.88240867    -0.11690
C259        C  0.08665885  0.22400325  0.90097309     0.02420
C260        C  0.10479463  0.25160157  0.90799400     0.00100
C261        C  0.09165505  0.28091103  0.89703129    -0.11630
C262        C  0.06186923  0.28305736  0.87849321     0.02300
H263        H  0.04307503  0.20508417  0.87564967     0.15280
H264        H  0.10477776  0.30249460  0.90257586     0.15280
C265        C  0.05044727  0.31364806  0.86564532     0.36940
C266        C  0.09872201  0.19308959  0.91031132     0.36840
N267        N  0.04129127  0.33806292  0.85504781    -0.43410
N268        N  0.10829063  0.16823642  0.91770061    -0.43400
C269        C  0.21835278  0.13266714  0.08562781     0.00180
C270        C  0.20099197  0.12574792  0.12422732    -0.11690
C271        C  0.20494386  0.09698247  0.14631608     0.02420
C272        C  0.22723792  0.07485856  0.13015637     0.00100
C273        C  0.24302671  0.08129603  0.08981331    -0.11630
C274        C  0.23861567  0.10975549  0.06750047     0.02300
H275        H  0.18522627  0.14329320  0.13804407     0.15280
H276        H  0.25992563  0.06464370  0.07652827     0.15280
C277        C  0.25581407  0.11538739  0.02652849     0.36940
C278        C  0.18577307  0.09092515  0.18533903     0.36840
N279        N  0.26944928  0.11985553  0.99359277    -0.43410
N280        N  0.17049112  0.08619067  0.21673248    -0.43400
C281        C  0.25365681  0.39680576  0.09775864     0.00180
C282        C  0.27134893  0.42151638  0.07861929    -0.11690
C283        C  0.27042383  0.45215636  0.09668985     0.02420
C284        C  0.25147125  0.45852015  0.13453129     0.00100
C285        C  0.23428559  0.43385101  0.15386998    -0.11630
C286        C  0.23536018  0.40340361  0.13649579     0.02300
H287        H  0.28551513  0.41707806  0.04906733     0.15280
H288        H  0.21975010  0.43844198  0.18306271     0.15280
C289        C  0.21759062  0.37960070  0.16022175     0.36940
C290        C  0.28971625  0.47638951  0.07664087     0.36840
N291        N  0.20312336  0.36093007  0.17962799    -0.43410
N292        N  0.30521417  0.49584450  0.06066930    -0.43400
C293        C  0.01551724  0.37471082  0.59049641     0.00180
C294        C  0.48545057  0.36241415  0.60047455    -0.11690
C295        C  0.48147114  0.33278004  0.61922686     0.02420
C296        C  0.00783090  0.31429593  0.62823900     0.00100
C297        C  0.03796587  0.32556691  0.61703081    -0.11630
C298        C  0.04201944  0.35555008  0.59788244     0.02300
H299        H  0.46463385  0.37607394  0.59395913     0.15280
H300        H  0.05830408  0.31130122  0.62431858     0.15280
C301        C  0.07346565  0.36637196  0.58783255     0.36940
C302        C  0.45003328  0.32217719  0.63035718     0.36840
N303        N  0.09869906  0.37499059  0.57966809    -0.43410
N304        N  0.42492021  0.31366661  0.63945689    -0.43400
C305        C  0.48608983  0.19790715  0.63547446     0.00180
C306        C  0.00177090  0.17276895  0.65520213    -0.11690
C307        C  0.00033539  0.14250645  0.63738203     0.02420
C308        C  0.48343779  0.13661063  0.59758281     0.00100
C309        C  0.46689413  0.16162819  0.57832354    -0.11630
C310        C  0.46797944  0.19206535  0.59699128     0.02300
H311        H  0.01568666  0.17685626  0.68479988     0.15280
H312        H  0.45368867  0.15763086  0.54808795     0.15280
C313        C  0.44979935  0.21659832  0.57663295     0.36940
C314        C  0.01648487  0.11821555  0.66159026     0.36840
N315        N  0.43519487  0.23625658  0.56031097    -0.43410
N316        N  0.02967440  0.09925429  0.68155397    -0.43400
C317        C  0.01505270  0.37310221  0.41361954     0.00180
C318        C  0.48500299  0.35907495  0.41336112    -0.11690
C319        C  0.47989417  0.32977332  0.39371571     0.02420
C320        C  0.00515373  0.31362116  0.37400498     0.00100
C321        C  0.03556442  0.32662765  0.37594349    -0.11630
C322        C  0.04075934  0.35614968  0.39604721     0.02300
H323        H  0.46507648  0.37153509  0.42753148     0.15280
H324        H  0.05502685  0.31412759  0.36063490     0.15280
C325        C  0.07214366  0.36910742  0.39619959     0.36940
C326        C  0.44819181  0.31751202  0.39190335     0.36840
N327        N  0.09735918  0.37940968  0.39652753    -0.43410
N328        N  0.42282371  0.30768745  0.39019203    -0.43400
C329        C  0.48504610  0.19745228  0.36398843     0.00180
C330        C  0.00442633  0.17405968  0.34604425    -0.11690
C331        C  0.00519133  0.14394649  0.36431355     0.02420
C332        C  0.48619550  0.13649207  0.40210443     0.00100
C333        C  0.46615275  0.15987591  0.41945595    -0.11630
C334        C  0.46547093  0.19014020  0.40078468     0.02300
H335        H  0.01948729  0.17952216  0.31769147     0.15280
H336        H  0.45134729  0.15475045  0.44815182     0.15280
C337        C  0.44401755  0.21301134  0.41925956     0.36940
C338        C  0.02572962  0.12147147  0.34275479     0.36840
N339        N  0.42677313  0.23133371  0.43400779    -0.43410
N340        N  0.04238550  0.10378228  0.32526897    -0.43400
C341        C  0.19205367  0.99877535  0.63617302     0.00180
C342        C  0.16796961  0.01883950  0.64971584    -0.11690
C343        C  0.13791104  0.01617681  0.63244882     0.02420
C344        C  0.13109758  0.49310121  0.59915696     0.00100
C345        C  0.15531722  0.47244581  0.58605188    -0.11630
C346        C  0.18559628  0.47503762  0.60445216     0.02300
H347        H  0.17278887  0.03707011  0.67421108     0.15280
H348        H  0.15080498  0.45456374  0.56103822     0.15280
C349        C  0.20931690  0.45262881  0.59140550     0.36940
C350        C  0.11507739  0.03801114  0.65041258     0.36840
N351        N  0.22835556  0.43458638  0.58121444    -0.43410
N352        N  0.09726288  0.05582565  0.66506371    -0.43400
C353        C  0.30776077  0.02119129  0.62753911     0.00180
C354        C  0.32144765  0.49265743  0.61585595    -0.11690
C355        C  0.35086096  0.49154168  0.59528370     0.02420
C356        C  0.36778099  0.01977011  0.58607844     0.00100
C357        C  0.35327747  0.04867531  0.59631954    -0.11630
C358        C  0.32345597  0.04953957  0.61702576     0.02300
H359        H  0.30910485  0.47088083  0.62358463     0.15280
H360        H  0.36550626  0.07055828  0.58920767     0.15280
C361        C  0.30932736  0.07955632  0.62693922     0.36940
C362        C  0.36185631  0.46059759  0.58343221     0.36840
N363        N  0.29790217  0.10364331  0.63459200    -0.43410
N364        N  0.36861724  0.43497167  0.57477959    -0.43400
C365        C  0.19518775  0.00045267  0.37053445     0.00180
C366        C  0.17334353  0.47934306  0.35150309    -0.11690
C367        C  0.14359626  0.47445776  0.37086788     0.02420
C368        C  0.13557324  0.49011290  0.41066965     0.00100
C369        C  0.15772185  0.00982567  0.43104090    -0.11630
C370        C  0.18722055  0.01527758  0.41141481     0.02300
H371        H  0.17909417  0.46742461  0.32050525     0.15280
H372        H  0.15128331  0.02231574  0.46136069     0.15280
C373        C  0.20764909  0.03801182  0.43244491     0.36940
C374        C  0.12100251  0.45498713  0.34790839     0.36840
N375        N  0.22398292  0.05615915  0.44953744    -0.43410
N376        N  0.10280536  0.43959174  0.32932400    -0.43400
C377        C  0.31251080  0.01875008  0.36344005     0.00180
C378        C  0.31739644  0.03876681  0.40010984    -0.11690
C379        C  0.34684832  0.04072545  0.42077122     0.02420
C380        C  0.37217685  0.02226101  0.40464856     0.00100
C381        C  0.36691940  0.00225317  0.36788296    -0.11630
C382        C  0.33760009  0.00017248  0.34763678     0.02300
H383        H  0.29813199  0.05302616  0.41251454     0.15280
H384        H  0.38577587  0.48771475  0.35488719     0.15280
C385        C  0.33361152  0.47777698  0.31174494     0.36940
C386        C  0.34988833  0.06119420  0.45898824     0.36840
N387        N  0.33038333  0.45984753  0.28301440    -0.43410
N388        N  0.35215201  0.07770410  0.48955149    -0.43400
O389        O  0.42010315  0.99655384  0.41795574    -0.74950
O390        O  0.41279232  0.54426814  0.45099315    -0.53860
C391        C  0.40366753  0.52126103  0.42608758     0.78770
O392        O  0.49352934  0.92480874  0.58326241    -0.59550
O393        O  0.03953381  0.91573811  0.54612983    -0.52580
C394        C  0.01698273  0.90733194  0.57259664     0.70790
O395        O  0.41691997  0.99493528  0.57742852    -0.74110
O396        O  0.41053981  0.54243829  0.54370247    -0.54680
C397        C  0.40049456  0.51919720  0.56774232     0.76790
O398        O  0.49343039  0.92318781  0.41867158    -0.59260
O399        O  0.03984476  0.91528924  0.45439925    -0.52380
C400        C  0.01696832  0.90612479  0.42941875     0.73380
Zr401      Zr  0.47153232  0.97466587  0.43242472     2.54710
O402        O  0.43167104  0.93439231  0.41999906    -0.79820
O403        O  0.47892589  0.98088842  0.35240996    -0.93240
Zr404      Zr  0.46912469  0.97424477  0.56415227     2.64680
O405        O  0.43147199  0.93114606  0.56159308    -0.98190
O406        O  0.46857042  0.97760595  0.64516232    -0.80260
O407        O  0.44838705  0.99542918  0.49800062    -0.83610
O408        O  0.49143772  0.95294404  0.49878828    -2.18320
O409        O  0.08736984  0.51559823  0.41821771    -0.67000
O410        O  0.09340601  0.96831540  0.45324357    -0.51570
C411        C  0.10313703  0.99088143  0.42799103     0.71770
O412        O  0.01002678  0.58946525  0.58224952    -0.59910
O413        O  0.46332656  0.59673740  0.54767057    -0.51890
C414        C  0.48534569  0.60557177  0.57437614     0.73570
O415        O  0.08280757  0.51653273  0.58318497    -0.71310
O416        O  0.09227269  0.96948905  0.54991990    -0.49980
C417        C  0.10002955  0.99246796  0.57611417     0.74950
O418        O  0.01310105  0.58931581  0.41736854    -0.66640
O419        O  0.46529663  0.59637601  0.45047520    -0.53830
C420        C  0.48809002  0.60534672  0.42472292     0.73330
Zr421      Zr  0.03618049  0.53877752  0.43382177     2.77540
O422        O  0.07565235  0.58032884  0.42768235    -0.97390
O423        O  0.03224721  0.53298282  0.35334534    -0.78210
Zr424      Zr  0.03308766  0.53915103  0.56528038     2.70070
O425        O  0.07285930  0.58024494  0.57143655    -0.79450
O426        O  0.02834345  0.53364230  0.64581232    -0.98540
Zr427      Zr  0.45843351  0.55057704  0.49872655     2.21500
Zr428      Zr  0.04672114  0.96273809  0.50031907     2.11130
O429        O  0.05674050  0.51814184  0.50029244    -2.47220
O430        O  0.01350717  0.56096174  0.49907886    -0.79250
O431        O  0.02653211  0.98383121  0.43226636    -0.71440
O432        O  0.47848173  0.52913570  0.56618335    -2.32400
O433        O  0.48129629  0.52936226  0.43170714    -2.28610
O434        O  0.02381482  0.98423765  0.56689832    -0.73200
H435        H  0.48694761  0.93068547  0.49915113     0.78800
H436        H  0.46842718  0.53855319  0.59190681     0.79880
H437        H  0.07897651  0.52265086  0.50088786     0.82110
H438        H  0.47224199  0.53877945  0.40558190     0.79720
H439        H  0.45580158  0.99641078  0.65217081     0.42750
H440        H  0.00585988  0.53715828  0.65271910     0.41720
H441        H  0.07801376  0.58581910  0.54019477     0.41400
H442        H  0.09189573  0.57483434  0.44968707     0.39330
H443        H  0.04311306  0.51297968  0.34649701     0.42460
H444        H  0.46256935  0.99603929  0.34353832     0.37250
H445        H  0.42529654  0.92763331  0.45032431     0.43370
H446        H  0.44063385  0.91503298  0.54151748     0.39780
H447        H  0.08587245  0.57698225  0.39828379     0.44700
H448        H  0.47190243  0.96055762  0.33961497     0.43420
H449        H  0.43183429  0.92172297  0.59169876     0.43560
H450        H  0.03159064  0.51096208  0.65145757     0.43920
C451        C  0.48635747  0.72908557  0.34329988     0.03470
C452        C  0.49443455  0.75578712  0.36858177    -0.12680
C453        C  0.49920893  0.78491394  0.34761899     0.00970
C454        C  0.49565183  0.78743022  0.30143456    -0.11210
C455        C  0.48725831  0.76106636  0.27612850     0.03460
C456        C  0.48270087  0.73199209  0.29700355    -0.10630
H457        H  0.49756153  0.75386025  0.40425626     0.09050
H458        H  0.49932501  0.80992946  0.28521755     0.06580
H459        H  0.47707777  0.71144860  0.27703128     0.06430
C460        C  0.22459693  0.50839905  0.34520979     0.03470
C461        C  0.25406098  0.51012582  0.36618264    -0.12680
C462        C  0.28134955  0.51780300  0.34165068     0.00970
C463        C  0.27920021  0.52315457  0.29565574    -0.11210
C464        C  0.25034881  0.52046039  0.27421508     0.03460
C465        C  0.22314924  0.51368400  0.29901476    -0.10630
H466        H  0.25603872  0.50464017  0.40124393     0.09050
H467        H  0.30016077  0.52842535  0.27623188     0.06580
H468        H  0.20089186  0.51191962  0.28193042     0.06430
C469        C  0.22306367  0.50356786  0.65735300     0.03470
C470        C  0.25008669  0.51054895  0.63197249    -0.12680
C471        C  0.27806848  0.51959569  0.65317101     0.00970
C472        C  0.27894451  0.52159012  0.69984294    -0.11210
C473        C  0.25221840  0.51408772  0.72524834     0.03460
C474        C  0.22454374  0.50502611  0.70401578    -0.10630
H475        H  0.24937118  0.50917663  0.59593472     0.09050
H476        H  0.30065380  0.52782950  0.71635614     0.06580
H477        H  0.20380019  0.49975170  0.72394246     0.06430
C478        C  0.48932247  0.72944263  0.65680953     0.03470
C479        C  0.49822882  0.75617575  0.63204474    -0.12680
C480        C  0.50376545  0.78499406  0.65374330     0.00970
C481        C  0.50092747  0.78705608  0.70017343    -0.11210
C482        C  0.49217076  0.76068696  0.72500095     0.03460
C483        C  0.48609694  0.73213195  0.70339408    -0.10630
H484        H  0.50087134  0.75469409  0.59617120     0.09050
H485        H  0.50484639  0.80938743  0.71686896     0.06580
H486        H  0.47927324  0.71182720  0.72307126     0.06430
C487        C  0.24964625  0.98998098  0.15637072     0.03470
C488        C  0.25398643  0.99208292  0.20253843    -0.12680
C489        C  0.24903298  0.52035203  0.22527714     0.00970
C490        C  0.24080296  0.54733968  0.20168376    -0.11210
C491        C  0.23582766  0.54590165  0.15535143     0.03460
C492        C  0.24035778  0.51694657  0.13293379    -0.10630
H493        H  0.26036471  0.97131080  0.22121481     0.09050
H494        H  0.23833453  0.56935058  0.21961137     0.06580
H495        H  0.23580576  0.51515757  0.09756567     0.06430
O496        O  0.22761325  0.85043990  0.92193308    -0.74950
O497        O  0.27460974  0.85802540  0.95571879    -0.53860
C498        C  0.25188782  0.86723133  0.93062607     0.78770
O499        O  0.15475840  0.77365159  0.08343674    -0.59550
O500        O  0.14522468  0.72807558  0.04595560    -0.52580
C501        C  0.13708388  0.75018808  0.07324103     0.70790
O502        O  0.22783268  0.84861223  0.08324726    -0.74110
O503        O  0.27546104  0.85649483  0.04998061    -0.54680
C504        C  0.25257628  0.86523249  0.07566194     0.76790
O505        O  0.15401984  0.77610024  0.91756633    -0.59260
O506        O  0.14582792  0.72897486  0.95193215    -0.52380
C507        C  0.13710027  0.75171369  0.92664842     0.73380
Zr508      Zr  0.20415475  0.79976857  0.93664795     2.54710
O509        O  0.16252211  0.83852496  0.94310573    -0.79820
O510        O  0.20599907  0.80015648  0.85553563    -0.93240
Zr511      Zr  0.20521739  0.79739120  0.06752189     2.64680
O512        O  0.16605799  0.83855187  0.07703357    -0.98190
O513        O  0.20976980  0.79147640  0.14784290    -0.80260
O514        O  0.22648843  0.82044173  0.00246136    -0.83610
O515        O  0.18255188  0.77735817  0.00160131    -2.18320
O516        O  0.24443007  0.68635254  0.91373361    -0.67000
O517        O  0.19862442  0.67549189  0.94989982    -0.51570
C518        C  0.22118784  0.66812397  0.92273787     0.71770
O519        O  0.31884896  0.75409159  0.07895388    -0.59910
O520        O  0.32768140  0.80235112  0.04884228    -0.51770
C521        C  0.33586939  0.77869093  0.07308136     0.73570
O522        O  0.24453917  0.68075491  0.07800957    -0.71310
O523        O  0.19681224  0.67512250  0.04448625    -0.49980
C524        C  0.21948441  0.66512525  0.06868979     0.74950
O525        O  0.31893349  0.75846908  0.91649058    -0.66640
O526        O  0.32765184  0.80509992  0.95180364    -0.53830
C527        C  0.33577689  0.78286064  0.92462681     0.73330
Zr528      Zr  0.26803041  0.73602177  0.93228907     2.77540
O529        O  0.30910291  0.69708694  0.92034759    -0.97390
O530        O  0.26117845  0.74396032  0.85271376    -0.78210
Zr531      Zr  0.26786018  0.73215713  0.06356043     2.70070
O532        O  0.30730666  0.69110790  0.06799520    -0.79450
O533        O  0.26241368  0.73538366  0.14426827    -0.98540
Zr534      Zr  0.28158448  0.81049127  0.00123117     2.21500
Zr535      Zr  0.19194219  0.72198115  0.99840078     2.11130
O536        O  0.24707271  0.71195040  0.99689998    -2.47220
O537        O  0.29038115  0.75510264  0.99880956    -0.79250
O538        O  0.21331757  0.74505543  0.93197040    -0.71440
O539        O  0.25972803  0.78724796  0.06760993    -2.32400
O540        O  0.25899710  0.79061814  0.93374927    -2.28610
O541        O  0.21340382  0.74226122  0.06632984    -0.73200
H542        H  0.16036012  0.78186342  0.00188652     0.78800
H543        H  0.26935199  0.79601328  0.09393477     0.79880
H544        H  0.25143710  0.68970840  0.99577894     0.82110
H545        H  0.26837017  0.80052757  0.90788932     0.79720
H546        H  0.23030592  0.80108779  0.15526135     0.42750
H547        H  0.23946333  0.73540407  0.14981418     0.41720
H548        H  0.31034328  0.68404771  0.03677848     0.41400
H549        H  0.30301202  0.67891726  0.93917039     0.39330
H550        H  0.24058345  0.73418826  0.84602350     0.42460
H551        H  0.22591910  0.81106143  0.84782115     0.37250
H552        H  0.16689352  0.84975177  0.97135745     0.43370
H553        H  0.14903009  0.83300168  0.05613018     0.39780
H554        H  0.30632911  0.68966448  0.88932218     0.44700
H555        H  0.18939083  0.81511194  0.84695213     0.43420
H556        H  0.15687497  0.83504839  0.10705453     0.43560
H557        H  0.26921587  0.71451061  0.15491285     0.43920
C558        C  0.45802542  0.77260895  0.15843882     0.03470
C559        C  0.45858122  0.77077812  0.20532248    -0.12680
C560        C  0.48630121  0.76327507  0.22735763     0.00970
C561        C  0.01369917  0.75800755  0.20286370    -0.11210
C562        C  0.01404611  0.76103866  0.15640552     0.03460
C563        C  0.48603069  0.76779661  0.13401418    -0.10630
H564        H  0.43726543  0.77452397  0.22462017     0.09050
H565        H  0.03514653  0.75226180  0.22020655     0.06580
H566        H  0.48602880  0.76908173  0.09797202     0.06430
C567        C  0.25565128  0.98983768  0.84593601     0.03470
C568        C  0.25825247  0.98890552  0.79929897    -0.12680
C569        C  0.25262840  0.51586117  0.77413072     0.00970
C570        C  0.24432460  0.54383731  0.79560217    -0.11210
C571        C  0.24220188  0.54534340  0.84230475     0.03460
C572        C  0.24760384  0.51812677  0.86748257    -0.10630
H573        H  0.26323404  0.96682837  0.78251694     0.09050
H574        H  0.23945886  0.56454986  0.77588715     0.06580
H575        H  0.24518471  0.51883196  0.90344840     0.06430
C576        C  0.45936203  0.77205856  0.84167802     0.03470
C577        C  0.46199513  0.77143727  0.79477183    -0.12680
C578        C  0.49008437  0.76269981  0.77377215     0.00970
C579        C  0.01637441  0.75591109  0.79926326    -0.11210
C580        C  0.01467805  0.75748777  0.84574674     0.03460
C581        C  0.48609457  0.76487685  0.86703743    -0.10630
H582        H  0.44204515  0.77732745  0.77432130     0.09050
H583        H  0.03846422  0.75029066  0.78287301     0.06580
H584        H  0.48488884  0.76488266  0.90307126     0.06430
C585        C  0.23613205  0.57613404  0.86394490     0.00180
C586        C  0.20978702  0.58065454  0.89191219    -0.11690
C587        C  0.20330104  0.61043764  0.91074523     0.02420
C588        C  0.22331475  0.63633843  0.90110179     0.00100
C589        C  0.24931644  0.63120157  0.87236699    -0.11630
C590        C  0.25617781  0.60171478  0.85495768     0.02300
H591        H  0.19422480  0.56095097  0.89884075     0.15280
H592        H  0.26542317  0.65015367  0.86401952     0.15280
C593        C  0.28492154  0.59810233  0.82937380     0.36940
C594        C  0.17633636  0.61343861  0.93988112     0.36840
N595        N  0.30797939  0.59514693  0.80909418    -0.43410
N596        N  0.15467549  0.61570869  0.96324220    -0.43400
C597        C  0.25280457  0.89933950  0.91002283     0.00180
C598        C  0.27970961  0.91862777  0.91442362    -0.11690
C599        C  0.28121376  0.94861151  0.89461972     0.02420
C600        C  0.25540430  0.95985441  0.87051428     0.00100
C601        C  0.22860823  0.94121036  0.86660351    -0.11630
C602        C  0.22691833  0.91140470  0.88553333     0.02300
H603        H  0.29979345  0.91018235  0.93270369     0.15280
H604        H  0.20887292  0.94994508  0.84768434     0.15280
C605        C  0.19802471  0.89432389  0.87779198     0.36940
C606        C  0.30963408  0.96704731  0.89821914     0.36840
N607        N  0.17465985  0.88132504  0.87054993    -0.43410
N608        N  0.33244074  0.98184821  0.90089448    -0.43400
C609        C  0.36695434  0.77854917  0.09612374     0.00180
C610        C  0.39095040  0.79978474  0.08342760    -0.11690
C611        C  0.42090549  0.79859603  0.10301795     0.02420
C612        C  0.42729152  0.77577080  0.13580709     0.00100
C613        C  0.40344204  0.75494970  0.14864804    -0.11630
C614        C  0.37370339  0.75616387  0.12996517     0.02300
H615        H  0.38648292  0.81714238  0.05790993     0.15280
H616        H  0.40817125  0.73727836  0.17371724     0.15280
C617        C  0.35101659  0.73384350  0.14740259     0.36940
C618        C  0.44430366  0.82154146  0.08995099     0.36840
N619        N  0.33341530  0.71561819  0.16184194    -0.43410
N620        N  0.46306292  0.83998511  0.07956982    -0.43400
C621        C  0.10504171  0.75076374  0.09406427     0.00180
C622        C  0.09925466  0.77420794  0.12650255    -0.11690
C623        C  0.06959830  0.77865401  0.14508706     0.02420
C624        C  0.04456906  0.75883594  0.13269702     0.00100
C625        C  0.04971265  0.73541009  0.10035427    -0.11630
C626        C  0.07962720  0.73125042  0.08084051     0.02300
H627        H  0.11791597  0.78980128  0.13741889     0.15280
H628        H  0.03046495  0.72002938  0.09091133     0.15280
C629        C  0.08322046  0.70701625  0.04744478     0.36940
C630        C  0.06537587  0.80428766  0.17640231     0.36840
N631        N  0.08592847  0.68747405  0.02076372    -0.43410
N632        N  0.06197934  0.82475930  0.20149027    -0.43400
C633        C  0.36676774  0.78390653  0.90100016     0.00180
C634        C  0.39270498  0.79917460  0.92034540    -0.11690
C635        C  0.42303521  0.79648615  0.90146165     0.02420
C636        C  0.42792607  0.77760407  0.86296267     0.00100
C637        C  0.40176844  0.76326263  0.84323919    -0.11630
C638        C  0.37161503  0.76684943  0.86078297     0.02300
H639        H  0.38946843  0.81262778  0.95079962     0.15280
H640        H  0.40481905  0.74864661  0.81382978     0.15280
C641        C  0.34624084  0.75276839  0.83582437     0.36940
C642        C  0.44838029  0.81388112  0.92175718     0.36840
N643        N  0.32629483  0.74135245  0.81530520    -0.43410
N644        N  0.46867472  0.82783321  0.93811828    -0.43400
C645        C  0.04413497  0.75562219  0.87094096     0.00180
C646        C  0.05655460  0.72626964  0.88240868    -0.11690
C647        C  0.08665884  0.72400326  0.90097310     0.02420
C648        C  0.10479462  0.75160158  0.90799401     0.00100
C649        C  0.09165504  0.78091104  0.89703130    -0.11630
C650        C  0.06186923  0.78305737  0.87849322     0.02300
H651        H  0.04307502  0.70508418  0.87564967     0.15280
H652        H  0.10477775  0.80249460  0.90257588     0.15280
C653        C  0.05044727  0.81364807  0.86564534     0.36940
C654        C  0.09872199  0.69308960  0.91031133     0.36840
N655        N  0.04129126  0.83806293  0.85504783    -0.43410
N656        N  0.10829061  0.66823643  0.91770061    -0.43400
C657        C  0.21835276  0.63266715  0.08562782     0.00180
C658        C  0.20099196  0.62574793  0.12422734    -0.11690
C659        C  0.20494384  0.59698248  0.14631610     0.02420
C660        C  0.22723790  0.57485856  0.13015638     0.00100
C661        C  0.24302667  0.58129603  0.08981332    -0.11630
C662        C  0.23861563  0.60975548  0.06750047     0.02300
H663        H  0.18522627  0.64329321  0.13804410     0.15280
H664        H  0.25992559  0.56464369  0.07652827     0.15280
C665        C  0.25581402  0.61538738  0.02652848     0.36940
C666        C  0.18577307  0.59092516  0.18533907     0.36840
N667        N  0.26944923  0.61985552  0.99359275    -0.43410
N668        N  0.17049112  0.58619069  0.21673253    -0.43400
C669        C  0.25365682  0.89680575  0.09775863     0.00180
C670        C  0.27134895  0.92151637  0.07861929    -0.11690
C671        C  0.27042385  0.95215636  0.09668985     0.02420
C672        C  0.25147127  0.95852015  0.13453129     0.00100
C673        C  0.23428560  0.93385101  0.15386997    -0.11630
C674        C  0.23536019  0.90340361  0.13649578     0.02300
H675        H  0.28551515  0.91707805  0.04906733     0.15280
H676        H  0.21975011  0.93844198  0.18306270     0.15280
C677        C  0.21759062  0.87960071  0.16022173     0.36940
C678        C  0.28971628  0.97638950  0.07664088     0.36840
N679        N  0.20312335  0.86093008  0.17962797    -0.43410
N680        N  0.30521421  0.99584449  0.06066931    -0.43400
C681        C  0.01551725  0.87471082  0.59049641     0.00180
C682        C  0.48545058  0.86241413  0.60047452    -0.11690
C683        C  0.48147114  0.83278003  0.61922683     0.02420
C684        C  0.00783091  0.81429593  0.62823899     0.00100
C685        C  0.03796587  0.82556692  0.61703083    -0.11630
C686        C  0.04201945  0.85555009  0.59788245     0.02300
H687        H  0.46463385  0.87607393  0.59395908     0.15280
H688        H  0.05830409  0.81130123  0.62431861     0.15280
C689        C  0.07346565  0.86637198  0.58783259     0.36940
C690        C  0.45003328  0.82217717  0.63035714     0.36840
N691        N  0.09869907  0.87499061  0.57966814    -0.43410
N692        N  0.42492022  0.81366659  0.63945683    -0.43400
C693        C  0.48608982  0.69790715  0.63547446     0.00180
C694        C  0.00177091  0.67276895  0.65520213    -0.11690
C695        C  0.00033540  0.64250645  0.63738204     0.02420
C696        C  0.48343779  0.63661063  0.59758282     0.00100
C697        C  0.46689413  0.66162819  0.57832354    -0.11630
C698        C  0.46797944  0.69206535  0.59699128     0.02300
H699        H  0.01568667  0.67685627  0.68479989     0.15280
H700        H  0.45368868  0.65763086  0.54808795     0.15280
C701        C  0.44979936  0.71659832  0.57663294     0.36940
C702        C  0.01648488  0.61821555  0.66159026     0.36840
N703        N  0.43519488  0.73625658  0.56031097    -0.43410
N704        N  0.02967442  0.59925430  0.68155397    -0.43400
C705        C  0.01505270  0.87310221  0.41361955     0.00180
C706        C  0.48500299  0.85907494  0.41336112    -0.11690
C707        C  0.47989417  0.82977332  0.39371571     0.02420
C708        C  0.00515373  0.81362116  0.37400498     0.00100
C709        C  0.03556442  0.82662765  0.37594348    -0.11630
C710        C  0.04075933  0.85614968  0.39604720     0.02300
H711        H  0.46507649  0.87153509  0.42753149     0.15280
H712        H  0.05502684  0.81412759  0.36063489     0.15280
C713        C  0.07214366  0.86910742  0.39619958     0.36940
C714        C  0.44819181  0.81751201  0.39190337     0.36840
N715        N  0.09735917  0.87940968  0.39652751    -0.43410
N716        N  0.42282371  0.80768744  0.39019206    -0.43400
C717        C  0.48504610  0.69745228  0.36398843     0.00180
C718        C  0.00442634  0.67405969  0.34604427    -0.11690
C719        C  0.00519134  0.64394650  0.36431357     0.02420
C720        C  0.48619551  0.63649207  0.40210442     0.00100
C721        C  0.46615275  0.65987592  0.41945595    -0.11630
C722        C  0.46547093  0.69014021  0.40078468     0.02300
H723        H  0.01948731  0.67952217  0.31769150     0.15280
H724        H  0.45134730  0.65475045  0.44815182     0.15280
C725        C  0.44401755  0.71301134  0.41925956     0.36940
C726        C  0.02572966  0.62147148  0.34275483     0.36840
N727        N  0.42677314  0.73133372  0.43400780    -0.43410
N728        N  0.04238554  0.60378230  0.32526902    -0.43400
C729        C  0.19205367  0.49877533  0.63617303     0.00180
C730        C  0.16796962  0.51883948  0.64971585    -0.11690
C731        C  0.13791105  0.51617680  0.63244883     0.02420
C732        C  0.13109758  0.99310122  0.59915695     0.00100
C733        C  0.15531723  0.97244582  0.58605187    -0.11630
C734        C  0.18559628  0.97503763  0.60445215     0.02300
H735        H  0.17278888  0.53707009  0.67421109     0.15280
H736        H  0.15080498  0.95456375  0.56103822     0.15280
C737        C  0.20931690  0.95262882  0.59140551     0.36940
C738        C  0.11507740  0.53801112  0.65041260     0.36840
N739        N  0.22835557  0.93458640  0.58121445    -0.43410
N740        N  0.09726288  0.55582564  0.66506373    -0.43400
C741        C  0.30776077  0.52119127  0.62753908     0.00180
C742        C  0.32144769  0.99265744  0.61585615    -0.11690
C743        C  0.35086101  0.99154168  0.59528393     0.02420
C744        C  0.36778098  0.51977012  0.58607836     0.00100
C745        C  0.35327750  0.54867530  0.59631962    -0.11630
C746        C  0.32345600  0.54953955  0.61702585     0.02300
H747        H  0.30910491  0.97088086  0.62358494     0.15280
H748        H  0.36550631  0.57055828  0.58920785     0.15280
C749        C  0.30932742  0.57955630  0.62693945     0.36940
C750        C  0.36185640  0.96059757  0.58343266     0.36840
N751        N  0.29790226  0.60364328  0.63459232    -0.43410
N752        N  0.36861735  0.93497162  0.57478025    -0.43400
C753        C  0.19518776  0.50045267  0.37053447     0.00180
C754        C  0.17334352  0.97934307  0.35150306    -0.11690
C755        C  0.14359625  0.97445777  0.37086786     0.02420
C756        C  0.13557324  0.99011290  0.41066963     0.00100
C757        C  0.15772185  0.50982568  0.43104091    -0.11630
C758        C  0.18722056  0.51527759  0.41141482     0.02300
H759        H  0.17909416  0.96742462  0.32050522     0.15280
H760        H  0.15128331  0.52231576  0.46136070     0.15280
C761        C  0.20764909  0.53801184  0.43244491     0.36940
C762        C  0.12100250  0.95498714  0.34790836     0.36840
N763        N  0.22398292  0.55615917  0.44953744    -0.43410
N764        N  0.10280534  0.93959175  0.32932396    -0.43400
C765        C  0.31251081  0.51875009  0.36344005     0.00180
C766        C  0.31739645  0.53876682  0.40010985    -0.11690
C767        C  0.34684832  0.54072545  0.42077123     0.02420
C768        C  0.37217685  0.52226102  0.40464856     0.00100
C769        C  0.36691941  0.50225318  0.36788295    -0.11630
C770        C  0.33760010  0.50017249  0.34763677     0.02300
H771        H  0.29813199  0.55302616  0.41251455     0.15280
H772        H  0.38577587  0.98771473  0.35488721     0.15280
C773        C  0.33361152  0.97777696  0.31174495     0.36940
C774        C  0.34988834  0.56119419  0.45898826     0.36840
N775        N  0.33038332  0.95984751  0.28301442    -0.43410
N776        N  0.35215201  0.57770409  0.48955152    -0.43400
O777        O  0.92010315  0.49655384  0.41795573    -0.74950
O778        O  0.91279232  0.04426814  0.45099315    -0.53860
C779        C  0.90366753  0.02126102  0.42608758     0.78770
O780        O  0.99352935  0.42480874  0.58326241    -0.59550
O781        O  0.53953380  0.41573811  0.54612985    -0.52580
C782        C  0.51698273  0.40733194  0.57259665     0.70790
O783        O  0.91691997  0.49493528  0.57742853    -0.74110
O784        O  0.91053981  0.04243828  0.54370248    -0.54680
C785        C  0.90049456  0.01919720  0.56774235     0.76790
O786        O  0.99343040  0.42318782  0.41867157    -0.59260
O787        O  0.53984476  0.41528924  0.45439926    -0.52380
C788        C  0.51696832  0.40612479  0.42941876     0.73380
Zr789      Zr  0.97153233  0.47466588  0.43242471     2.54710
O790        O  0.93167105  0.43439232  0.41999903    -0.79820
O791        O  0.97892590  0.48088844  0.35240996    -0.93240
Zr792      Zr  0.96912470  0.47424476  0.56415226     2.64680
O793        O  0.93147200  0.43114605  0.56159302    -0.98190
O794        O  0.96857041  0.47760593  0.64516231    -0.80260
O795        O  0.94838705  0.49542918  0.49800061    -0.83610
O796        O  0.99143772  0.45294404  0.49878827    -2.18320
O797        O  0.58736983  0.01559822  0.41821770    -0.67000
O798        O  0.59340601  0.46831540  0.45324359    -0.51570
C799        C  0.60313703  0.49088143  0.42799105     0.71770
O800        O  0.51002677  0.08946525  0.58224951    -0.59910
O801        O  0.96332655  0.09673740  0.54767057    -0.51890
C802        C  0.98534568  0.10557177  0.57437613     0.73570
O803        O  0.58280757  0.01653273  0.58318496    -0.71310
O804        O  0.59227269  0.46948905  0.54991991    -0.49980
C805        C  0.60002955  0.49246796  0.57611418     0.74950
O806        O  0.51310104  0.08931581  0.41736854    -0.66640
O807        O  0.96529662  0.09637600  0.45047520    -0.53830
C808        C  0.98809001  0.10534672  0.42472292     0.73330
Zr809      Zr  0.53618048  0.03877751  0.43382176     2.77540
O810        O  0.57565235  0.08032883  0.42768234    -0.97390
O811        O  0.53224720  0.03298281  0.35334533    -0.78210
Zr812      Zr  0.53308766  0.03915103  0.56528037     2.70070
O813        O  0.57285930  0.08024494  0.57143654    -0.79450
O814        O  0.52834345  0.03364231  0.64581231    -0.98540
Zr815      Zr  0.95843351  0.05057703  0.49872655     2.21500
Zr816      Zr  0.54672113  0.46273809  0.50031908     2.11130
O817        O  0.55674050  0.01814184  0.50029244    -2.47220
O818        O  0.51350717  0.06096174  0.49907886    -0.79250
O819        O  0.52653211  0.48383121  0.43226637    -0.71440
O820        O  0.97848173  0.02913569  0.56618334    -2.32400
O821        O  0.98129629  0.02936226  0.43170713    -2.28610
O822        O  0.52381482  0.48423765  0.56689833    -0.73200
H823        H  0.98694762  0.43068547  0.49915112     0.78800
H824        H  0.96842718  0.03855318  0.59190681     0.79880
H825        H  0.57897650  0.02265086  0.50088785     0.82110
H826        H  0.97224198  0.03877945  0.40558189     0.79720
H827        H  0.95580159  0.49641077  0.65217080     0.42750
H828        H  0.50585988  0.03715828  0.65271910     0.41720
H829        H  0.57801376  0.08581910  0.54019475     0.41400
H830        H  0.59189572  0.07483433  0.44968706     0.39330
H831        H  0.54311304  0.01297967  0.34649701     0.42460
H832        H  0.96256935  0.49603930  0.34353831     0.37250
H833        H  0.92529655  0.42763331  0.45032428     0.43370
H834        H  0.94063387  0.41503298  0.54151743     0.39780
H835        H  0.58587244  0.07698224  0.39828377     0.44700
H836        H  0.97190245  0.46055763  0.33961496     0.43420
H837        H  0.93183428  0.42172296  0.59169871     0.43560
H838        H  0.53159065  0.01096209  0.65145757     0.43920
C839        C  0.98635747  0.22908558  0.34329988     0.03470
C840        C  0.99443455  0.25578712  0.36858177    -0.12680
C841        C  0.99920893  0.28491395  0.34761899     0.00970
C842        C  0.99565183  0.28743022  0.30143456    -0.11210
C843        C  0.98725831  0.26106636  0.27612850     0.03460
C844        C  0.98270087  0.23199209  0.29700355    -0.10630
H845        H  0.99756153  0.25386025  0.40425626     0.09050
H846        H  0.99932501  0.30992946  0.28521755     0.06580
H847        H  0.97707777  0.21144860  0.27703128     0.06430
C848        C  0.72459693  0.00839904  0.34520979     0.03470
C849        C  0.75406098  0.01012580  0.36618264    -0.12680
C850        C  0.78134954  0.01780299  0.34165069     0.00970
C851        C  0.77920021  0.02315456  0.29565574    -0.11210
C852        C  0.75034881  0.02046038  0.27421509     0.03460
C853        C  0.72314923  0.01368399  0.29901475    -0.10630
H854        H  0.75603871  0.00464015  0.40124393     0.09050
H855        H  0.80016077  0.02842534  0.27623189     0.06580
H856        H  0.70089186  0.01191962  0.28193041     0.06430
C857        C  0.72306366  0.00356787  0.65735299     0.03470
C858        C  0.75008669  0.01054897  0.63197249    -0.12680
C859        C  0.77806847  0.01959571  0.65317101     0.00970
C860        C  0.77894450  0.02159014  0.69984295    -0.11210
C861        C  0.75221840  0.01408773  0.72524834     0.03460
C862        C  0.72454373  0.00502612  0.70401577    -0.10630
H863        H  0.74937118  0.00917666  0.59593472     0.09050
H864        H  0.80065379  0.02782952  0.71635614     0.06580
H865        H  0.70380019  0.99975170  0.72394245     0.06430
C866        C  0.98932248  0.22944263  0.65680953     0.03470
C867        C  0.99822882  0.25617575  0.63204473    -0.12680
C868        C  0.00376545  0.28499405  0.65374330     0.00970
C869        C  0.00092747  0.28705608  0.70017344    -0.11210
C870        C  0.99217076  0.26068695  0.72500095     0.03460
C871        C  0.98609694  0.23213195  0.70339407    -0.10630
H872        H  0.00087135  0.25469409  0.59617120     0.09050
H873        H  0.00484640  0.30938743  0.71686896     0.06580
H874        H  0.97927324  0.21182719  0.72307125     0.06430
C875        C  0.74964624  0.48998099  0.15637072     0.03470
C876        C  0.75398643  0.49208292  0.20253844    -0.12680
C877        C  0.74903298  0.02035202  0.22527715     0.00970
C878        C  0.74080297  0.04733967  0.20168377    -0.11210
C879        C  0.73582767  0.04590165  0.15535144     0.03460
C880        C  0.74035779  0.01694657  0.13293379    -0.10630
H881        H  0.76036470  0.47131080  0.22121481     0.09050
H882        H  0.73833454  0.06935057  0.21961138     0.06580
H883        H  0.73580578  0.01515757  0.09756567     0.06430
O884        O  0.72761324  0.35043990  0.92193309    -0.74950
O885        O  0.77460974  0.35802541  0.95571879    -0.53860
C886        C  0.75188781  0.36723134  0.93062607     0.78770
O887        O  0.65475840  0.27365158  0.08343674    -0.59550
O888        O  0.64522469  0.22807558  0.04595560    -0.52580
C889        C  0.63708389  0.25018807  0.07324103     0.70790
O890        O  0.72783268  0.34861223  0.08324727    -0.74110
O891        O  0.77546104  0.35649483  0.04998061    -0.54680
C892        C  0.75257628  0.36523249  0.07566194     0.76790
O893        O  0.65401984  0.27610024  0.91756633    -0.59260
O894        O  0.64582792  0.22897486  0.95193215    -0.52380
C895        C  0.63710027  0.25171369  0.92664843     0.73380
Zr896      Zr  0.70415475  0.29976857  0.93664795     2.54710
O897        O  0.66252211  0.33852496  0.94310573    -0.79820
O898        O  0.70599907  0.30015648  0.85553563    -0.93240
Zr899      Zr  0.70521739  0.29739120  0.06752189     2.64680
O900        O  0.66605799  0.33855187  0.07703357    -0.98190
O901        O  0.70976980  0.29147640  0.14784291    -0.80260
O902        O  0.72648843  0.32044173  0.00246136    -0.83610
O903        O  0.68255188  0.27735817  0.00160131    -2.18320
O904        O  0.74443008  0.18635254  0.91373362    -0.67000
O905        O  0.69862443  0.17549188  0.94989982    -0.51570
C906        C  0.72118784  0.16812397  0.92273787     0.71770
O907        O  0.81884896  0.25409160  0.07895387    -0.59910
O908        O  0.82768140  0.30235113  0.04884228    -0.51770
C909        C  0.83586939  0.27869094  0.07308136     0.73570
O910        O  0.74453918  0.18075491  0.07800957    -0.71310
O911        O  0.69681225  0.17512249  0.04448626    -0.49980
C912        C  0.71948442  0.16512525  0.06868979     0.74950
O913        O  0.81893350  0.25846909  0.91649058    -0.66640
O914        O  0.82765184  0.30509993  0.95180364    -0.53830
C915        C  0.83577690  0.28286065  0.92462681     0.73330
Zr916      Zr  0.76803041  0.23602177  0.93228906     2.77540
O917        O  0.80910292  0.19708694  0.92034757    -0.97390
O918        O  0.76117845  0.24396033  0.85271376    -0.78210
Zr919      Zr  0.76786019  0.23215714  0.06356043     2.70070
O920        O  0.80730667  0.19110791  0.06799520    -0.79450
O921        O  0.76241368  0.23538366  0.14426827    -0.98540
Zr922      Zr  0.78158449  0.31049128  0.00123117     2.21500
Zr923      Zr  0.69194220  0.22198115  0.99840078     2.11130
O924        O  0.74707271  0.21195040  0.99689998    -2.47220
O925        O  0.79038115  0.25510264  0.99880956    -0.79250
O926        O  0.71331757  0.24505543  0.93197040    -0.71440
O927        O  0.75972804  0.28724797  0.06760993    -2.32400
O928        O  0.75899711  0.29061814  0.93374927    -2.28610
O929        O  0.71340383  0.24226121  0.06632985    -0.73200
H930        H  0.66036013  0.28186342  0.00188653     0.78800
H931        H  0.76935199  0.29601328  0.09393477     0.79880
H932        H  0.75143711  0.18970840  0.99577894     0.82110
H933        H  0.76837017  0.30052758  0.90788932     0.79720
H934        H  0.73030592  0.30108778  0.15526135     0.42750
H935        H  0.73946333  0.23540407  0.14981418     0.41720
H936        H  0.81034329  0.18404771  0.03677848     0.41400
H937        H  0.80301203  0.17891727  0.93917037     0.39330
H938        H  0.74058345  0.23418826  0.84602350     0.42460
H939        H  0.72591909  0.31106143  0.84782115     0.37250
H940        H  0.66689351  0.34975177  0.97135745     0.43370
H941        H  0.64903009  0.33300167  0.05613019     0.39780
H942        H  0.80632911  0.18966449  0.88932216     0.44700
H943        H  0.68939083  0.31511194  0.84695213     0.43420
H944        H  0.65687497  0.33504839  0.10705454     0.43560
H945        H  0.76921588  0.21451060  0.15491285     0.43920
C946        C  0.95802543  0.27260895  0.15843882     0.03470
C947        C  0.95858122  0.27077812  0.20532248    -0.12680
C948        C  0.98630121  0.26327507  0.22735763     0.00970
C949        C  0.51369917  0.25800755  0.20286370    -0.11210
C950        C  0.51404611  0.26103866  0.15640552     0.03460
C951        C  0.98603069  0.26779662  0.13401418    -0.10630
H952        H  0.93726544  0.27452398  0.22462017     0.09050
H953        H  0.53514653  0.25226179  0.22020655     0.06580
H954        H  0.98602880  0.26908174  0.09797202     0.06430
C955        C  0.75565127  0.48983768  0.84593601     0.03470
C956        C  0.75825247  0.48890552  0.79929897    -0.12680
C957        C  0.75262839  0.01586117  0.77413072     0.00970
C958        C  0.74432460  0.04383731  0.79560218    -0.11210
C959        C  0.74220188  0.04534340  0.84230476     0.03460
C960        C  0.74760384  0.01812677  0.86748257    -0.10630
H961        H  0.76323404  0.46682837  0.78251694     0.09050
H962        H  0.73945885  0.06454986  0.77588716     0.06580
H963        H  0.74518473  0.01883196  0.90344841     0.06430
C964        C  0.95936203  0.27205855  0.84167802     0.03470
C965        C  0.96199514  0.27143726  0.79477183    -0.12680
C966        C  0.99008438  0.26269980  0.77377215     0.00970
C967        C  0.51637441  0.25591108  0.79926326    -0.11210
C968        C  0.51467805  0.25748776  0.84574675     0.03460
C969        C  0.98609457  0.26487684  0.86703743    -0.10630
H970        H  0.94204515  0.27732745  0.77432130     0.09050
H971        H  0.53846422  0.25029065  0.78287301     0.06580
H972        H  0.98488884  0.26488264  0.90307126     0.06430
C973        C  0.73613206  0.07613404  0.86394491     0.00180
C974        C  0.70978704  0.08065454  0.89191220    -0.11690
C975        C  0.70330105  0.11043764  0.91074525     0.02420
C976        C  0.72331476  0.13633842  0.90110180     0.00100
C977        C  0.74931644  0.13120157  0.87236699    -0.11630
C978        C  0.75617782  0.10171478  0.85495768     0.02300
H979        H  0.69422481  0.06095097  0.89884077     0.15280
H980        H  0.76542317  0.15015367  0.86401951     0.15280
C981        C  0.78492154  0.09810233  0.82937379     0.36940
C982        C  0.67633637  0.11343861  0.93988114     0.36840
N983        N  0.80797939  0.09514693  0.80909416    -0.43410
N984        N  0.65467551  0.11570869  0.96324223    -0.43400
C985        C  0.75280457  0.39933951  0.91002284     0.00180
C986        C  0.77970961  0.41862777  0.91442363    -0.11690
C987        C  0.78121376  0.44861152  0.89461973     0.02420
C988        C  0.75540429  0.45985441  0.87051428     0.00100
C989        C  0.72860822  0.44121036  0.86660351    -0.11630
C990        C  0.72691832  0.41140470  0.88553334     0.02300
H991        H  0.79979345  0.41018235  0.93270370     0.15280
H992        H  0.70887292  0.44994508  0.84768434     0.15280
C993        C  0.69802470  0.39432389  0.87779199     0.36940
C994        C  0.80963407  0.46704732  0.89821915     0.36840
N995        N  0.67465984  0.38132504  0.87054994    -0.43410
N996        N  0.83244073  0.48184822  0.90089449    -0.43400
C997        C  0.86695434  0.27854918  0.09612374     0.00180
C998        C  0.89095041  0.29978474  0.08342759    -0.11690
C999        C  0.92090550  0.29859603  0.10301794     0.02420
C1000       C  0.92729152  0.27577081  0.13580709     0.00100
C1001       C  0.90344204  0.25494971  0.14864804    -0.11630
C1002       C  0.87370340  0.25616388  0.12996517     0.02300
H1003       H  0.88648293  0.31714238  0.05790992     0.15280
H1004       H  0.90817125  0.23727837  0.17371725     0.15280
C1005       C  0.85101659  0.23384351  0.14740260     0.36940
C1006       C  0.94430366  0.32154146  0.08995098     0.36840
N1007       N  0.83341530  0.21561821  0.16184196    -0.43410
N1008       N  0.96306293  0.33998511  0.07956981    -0.43400
C1009       C  0.60504171  0.25076374  0.09406427     0.00180
C1010       C  0.59925467  0.27420793  0.12650256    -0.11690
C1011       C  0.56959831  0.27865400  0.14508707     0.02420
C1012       C  0.54456907  0.25883594  0.13269702     0.00100
C1013       C  0.54971265  0.23541009  0.10035427    -0.11630
C1014       C  0.57962721  0.23125042  0.08084051     0.02300
H1015       H  0.61791598  0.28980127  0.13741891     0.15280
H1016       H  0.53046495  0.22002938  0.09091132     0.15280
C1017       C  0.58322046  0.20701625  0.04744478     0.36940
C1018       C  0.56537588  0.30428765  0.17640232     0.36840
N1019       N  0.58592847  0.18747405  0.02076372    -0.43410
N1020       N  0.56197935  0.32475929  0.20149029    -0.43400
C1021       C  0.86676775  0.28390654  0.90100016     0.00180
C1022       C  0.89270499  0.29917459  0.92034541    -0.11690
C1023       C  0.92303521  0.29648614  0.90146166     0.02420
C1024       C  0.92792608  0.27760406  0.86296267     0.00100
C1025       C  0.90176844  0.26326263  0.84323919    -0.11630
C1026       C  0.87161503  0.26684943  0.86078297     0.02300
H1027       H  0.88946844  0.31262776  0.95079963     0.15280
H1028       H  0.90481904  0.24864662  0.81382977     0.15280
C1029       C  0.84624084  0.25276840  0.83582436     0.36940
C1030       C  0.94838030  0.31388110  0.92175720     0.36840
N1031       N  0.82629482  0.24135248  0.81530519    -0.43410
N1032       N  0.96867473  0.32783318  0.93811830    -0.43400
C1033       C  0.54413497  0.25562218  0.87094096     0.00180
C1034       C  0.55655460  0.22626963  0.88240868    -0.11690
C1035       C  0.58665885  0.22400325  0.90097310     0.02420
C1036       C  0.60479463  0.25160157  0.90799401     0.00100
C1037       C  0.59165505  0.28091103  0.89703129    -0.11630
C1038       C  0.56186923  0.28305736  0.87849321     0.02300
H1039       H  0.54307502  0.20508417  0.87564967     0.15280
H1040       H  0.60477776  0.30249460  0.90257586     0.15280
C1041       C  0.55044727  0.31364806  0.86564532     0.36940
C1042       C  0.59872200  0.19308959  0.91031133     0.36840
N1043       N  0.54129127  0.33806292  0.85504781    -0.43410
N1044       N  0.60829062  0.16823642  0.91770062    -0.43400
C1045       C  0.71835277  0.13266715  0.08562783     0.00180
C1046       C  0.70099197  0.12574793  0.12422734    -0.11690
C1047       C  0.70494386  0.09698249  0.14631611     0.02420
C1048       C  0.72723791  0.07485856  0.13015639     0.00100
C1049       C  0.74302669  0.08129603  0.08981332    -0.11630
C1050       C  0.73861565  0.10975548  0.06750047     0.02300
H1051       H  0.68522628  0.14329321  0.13804411     0.15280
H1052       H  0.75992560  0.06464369  0.07652827     0.15280
C1053       C  0.75581403  0.11538738  0.02652848     0.36940
C1054       C  0.68577308  0.09092516  0.18533907     0.36840
N1055       N  0.76944924  0.11985551  0.99359276    -0.43410
N1056       N  0.67049114  0.08619069  0.21673253    -0.43400
C1057       C  0.75365681  0.39680575  0.09775864     0.00180
C1058       C  0.77134894  0.42151637  0.07861929    -0.11690
C1059       C  0.77042384  0.45215636  0.09668985     0.02420
C1060       C  0.75147126  0.45852015  0.13453129     0.00100
C1061       C  0.73428559  0.43385101  0.15386997    -0.11630
C1062       C  0.73536019  0.40340361  0.13649578     0.02300
H1063       H  0.78551514  0.41707806  0.04906733     0.15280
H1064       H  0.71975010  0.43844198  0.18306271     0.15280
C1065       C  0.71759062  0.37960070  0.16022174     0.36940
C1066       C  0.78971626  0.47638950  0.07664088     0.36840
N1067       N  0.70312336  0.36093007  0.17962798    -0.43410
N1068       N  0.80521419  0.49584449  0.06066931    -0.43400
C1069       C  0.51551724  0.37471082  0.59049642     0.00180
C1070       C  0.98545058  0.36241414  0.60047455    -0.11690
C1071       C  0.98147115  0.33278004  0.61922686     0.02420
C1072       C  0.50783089  0.31429593  0.62823900     0.00100
C1073       C  0.53796586  0.32556692  0.61703082    -0.11630
C1074       C  0.54201944  0.35555009  0.59788245     0.02300
H1075       H  0.96463386  0.37607394  0.59395913     0.15280
H1076       H  0.55830408  0.31130122  0.62431860     0.15280
C1077       C  0.57346564  0.36637197  0.58783258     0.36940
C1078       C  0.95003328  0.32217719  0.63035720     0.36840
N1079       N  0.59869906  0.37499060  0.57966813    -0.43410
N1080       N  0.92492022  0.31366662  0.63945691    -0.43400
C1081       C  0.98608983  0.19790715  0.63547445     0.00180
C1082       C  0.50177090  0.17276895  0.65520213    -0.11690
C1083       C  0.50033540  0.14250645  0.63738203     0.02420
C1084       C  0.98343779  0.13661063  0.59758281     0.00100
C1085       C  0.96689414  0.16162819  0.57832353    -0.11630
C1086       C  0.96797945  0.19206535  0.59699127     0.02300
H1087       H  0.51568667  0.17685627  0.68479988     0.15280
H1088       H  0.95368868  0.15763086  0.54808794     0.15280
C1089       C  0.94979937  0.21659832  0.57663293     0.36940
C1090       C  0.51648488  0.11821555  0.66159025     0.36840
N1091       N  0.93519489  0.23625659  0.56031095    -0.43410
N1092       N  0.52967442  0.09925430  0.68155396    -0.43400
C1093       C  0.51505269  0.37310221  0.41361956     0.00180
C1094       C  0.98500300  0.35907495  0.41336111    -0.11690
C1095       C  0.97989417  0.32977332  0.39371570     0.02420
C1096       C  0.50515373  0.31362116  0.37400498     0.00100
C1097       C  0.53556442  0.32662764  0.37594350    -0.11630
C1098       C  0.54075933  0.35614968  0.39604722     0.02300
H1099       H  0.96507649  0.37153510  0.42753147     0.15280
H1100       H  0.55502684  0.31412759  0.36063491     0.15280
C1101       C  0.57214366  0.36910742  0.39619961     0.36940
C1102       C  0.94819181  0.31751202  0.39190336     0.36840
N1103       N  0.59735918  0.37940968  0.39652755    -0.43410
N1104       N  0.92282371  0.30768745  0.39019204    -0.43400
C1105       C  0.98504610  0.19745228  0.36398843     0.00180
C1106       C  0.50442634  0.17405968  0.34604427    -0.11690
C1107       C  0.50519134  0.14394650  0.36431357     0.02420
C1108       C  0.98619550  0.13649207  0.40210442     0.00100
C1109       C  0.96615275  0.15987592  0.41945595    -0.11630
C1110       C  0.96547093  0.19014021  0.40078469     0.02300
H1111       H  0.51948731  0.17952217  0.31769150     0.15280
H1112       H  0.95134731  0.15475045  0.44815183     0.15280
C1113       C  0.94401756  0.21301135  0.41925958     0.36940
C1114       C  0.52572965  0.12147148  0.34275482     0.36840
N1115       N  0.92677316  0.23133373  0.43400782    -0.43410
N1116       N  0.54238554  0.10378230  0.32526901    -0.43400
C1117       C  0.69205367  0.99877534  0.63617303     0.00180
C1118       C  0.66796961  0.01883950  0.64971584    -0.11690
C1119       C  0.63791104  0.01617681  0.63244883     0.02420
C1120       C  0.63109758  0.49310122  0.59915695     0.00100
C1121       C  0.65531723  0.47244583  0.58605186    -0.11630
C1122       C  0.68559628  0.47503765  0.60445214     0.02300
H1123       H  0.67278887  0.03707010  0.67421108     0.15280
H1124       H  0.65080499  0.45456376  0.56103820     0.15280
C1125       C  0.70931691  0.45262884  0.59140547     0.36940
C1126       C  0.61507740  0.03801114  0.65041259     0.36840
N1127       N  0.72835558  0.43458643  0.58121440    -0.43410
N1128       N  0.59726288  0.05582565  0.66506372    -0.43400
C1129       C  0.80776077  0.02119128  0.62753909     0.00180
C1130       C  0.82144770  0.49265745  0.61585617    -0.11690
C1131       C  0.85086102  0.49154168  0.59528396     0.02420
C1132       C  0.86778099  0.01977011  0.58607841     0.00100
C1133       C  0.85327748  0.04867530  0.59631956    -0.11630
C1134       C  0.82345598  0.04953956  0.61702578     0.02300
H1135       H  0.80910492  0.47088086  0.62358497     0.15280
H1136       H  0.86550628  0.07055828  0.58920772     0.15280
C1137       C  0.80932738  0.07955631  0.62693929     0.36940
C1138       C  0.86185641  0.46059757  0.58343272     0.36840
N1139       N  0.79790220  0.10364329  0.63459209    -0.43410
N1140       N  0.86861737  0.43497161  0.57478033    -0.43400
C1141       C  0.69518775  0.00045266  0.37053446     0.00180
C1142       C  0.67334353  0.47934306  0.35150309    -0.11690
C1143       C  0.64359626  0.47445776  0.37086789     0.02420
C1144       C  0.63557324  0.49011290  0.41066965     0.00100
C1145       C  0.65772184  0.00982567  0.43104091    -0.11630
C1146       C  0.68722055  0.01527758  0.41141482     0.02300
H1147       H  0.67909417  0.46742461  0.32050525     0.15280
H1148       H  0.65128330  0.02231574  0.46136070     0.15280
C1149       C  0.70764909  0.03801182  0.43244492     0.36940
C1150       C  0.62100251  0.45498712  0.34790840     0.36840
N1151       N  0.72398292  0.05615915  0.44953745    -0.43410
N1152       N  0.60280536  0.43959172  0.32932401    -0.43400
C1153       C  0.81251080  0.01875008  0.36344006     0.00180
C1154       C  0.81739644  0.03876681  0.40010985    -0.11690
C1155       C  0.84684832  0.04072545  0.42077122     0.02420
C1156       C  0.87217685  0.02226101  0.40464856     0.00100
C1157       C  0.86691940  0.00225316  0.36788296    -0.11630
C1158       C  0.83760009  0.00017247  0.34763678     0.02300
H1159       H  0.79813199  0.05302616  0.41251454     0.15280
H1160       H  0.88577587  0.48771473  0.35488720     0.15280
C1161       C  0.83361152  0.47777697  0.31174495     0.36940
C1162       C  0.84988834  0.06119419  0.45898824     0.36840
N1163       N  0.83038332  0.45984752  0.28301441    -0.43410
N1164       N  0.85215201  0.07770410  0.48955149    -0.43400
O1165       O  0.92010315  0.99655383  0.41795574    -0.74950
O1166       O  0.91279232  0.54426814  0.45099315    -0.53860
C1167       C  0.90366753  0.52126103  0.42608758     0.78770
O1168       O  0.99352935  0.92480874  0.58326241    -0.59550
O1169       O  0.53953380  0.91573811  0.54612984    -0.52580
C1170       C  0.51698273  0.90733194  0.57259664     0.70790
O1171       O  0.91691997  0.99493528  0.57742850    -0.74110
O1172       O  0.91053982  0.54243828  0.54370250    -0.54680
C1173       C  0.90049457  0.51919720  0.56774237     0.76790
O1174       O  0.99343039  0.92318781  0.41867158    -0.59260
O1175       O  0.53984476  0.91528924  0.45439925    -0.52380
C1176       C  0.51696832  0.90612479  0.42941875     0.73380
Zr1177     Zr  0.97153232  0.97466587  0.43242472     2.54710
O1178       O  0.93167104  0.93439230  0.41999907    -0.79820
O1179       O  0.97892588  0.98088841  0.35240996    -0.93240
Zr1180     Zr  0.96912470  0.97424477  0.56415227     2.64680
O1181       O  0.93147199  0.93114606  0.56159313    -0.98190
O1182       O  0.96857044  0.97760598  0.64516232    -0.80260
O1183       O  0.94838705  0.99542918  0.49800062    -0.83610
O1184       O  0.99143772  0.95294404  0.49878828    -2.18320
O1185       O  0.58736984  0.51559823  0.41821771    -0.67000
O1186       O  0.59340601  0.96831540  0.45324358    -0.51570
C1187       C  0.60313703  0.99088143  0.42799104     0.71770
O1188       O  0.51002677  0.58946526  0.58224951    -0.59910
O1189       O  0.96332656  0.59673740  0.54767058    -0.51890
C1190       C  0.98534569  0.60557177  0.57437614     0.73570
O1191       O  0.58280757  0.51653274  0.58318496    -0.71310
O1192       O  0.59227269  0.96948905  0.54991991    -0.49980
C1193       C  0.60002955  0.99246796  0.57611418     0.74950
O1194       O  0.51310105  0.58931581  0.41736853    -0.66640
O1195       O  0.96529663  0.59637600  0.45047521    -0.53830
C1196       C  0.98809002  0.60534672  0.42472293     0.73330
Zr1197     Zr  0.53618049  0.53877751  0.43382176     2.77540
O1198       O  0.57565235  0.58032883  0.42768233    -0.97390
O1199       O  0.53224720  0.53298281  0.35334533    -0.78210
Zr1200     Zr  0.53308766  0.53915104  0.56528037     2.70070
O1201       O  0.57285930  0.58024494  0.57143655    -0.79450
O1202       O  0.52834345  0.53364231  0.64581231    -0.98540
Zr1203     Zr  0.95843351  0.55057703  0.49872655     2.21500
Zr1204     Zr  0.54672113  0.96273809  0.50031908     2.11130
O1205       O  0.55674050  0.51814184  0.50029244    -2.47220
O1206       O  0.51350717  0.56096174  0.49907885    -0.79250
O1207       O  0.52653211  0.98383122  0.43226636    -0.71440
O1208       O  0.97848173  0.52913569  0.56618335    -2.32400
O1209       O  0.98129630  0.52936227  0.43170714    -2.28610
O1210       O  0.52381482  0.98423765  0.56689833    -0.73200
H1211       H  0.98694761  0.93068547  0.49915113     0.78800
H1212       H  0.96842718  0.53855317  0.59190681     0.79880
H1213       H  0.57897650  0.52265086  0.50088785     0.82110
H1214       H  0.97224199  0.53877946  0.40558190     0.79720
H1215       H  0.95580156  0.99641078  0.65217080     0.42750
H1216       H  0.50585989  0.53715828  0.65271910     0.41720
H1217       H  0.57801378  0.58581910  0.54019477     0.41400
H1218       H  0.59189572  0.57483433  0.44968705     0.39330
H1219       H  0.54311304  0.51297966  0.34649701     0.42460
H1220       H  0.96256934  0.99603929  0.34353832     0.37250
H1221       H  0.92529655  0.92763330  0.45032432     0.43370
H1222       H  0.94063384  0.91503298  0.54151753     0.39780
H1223       H  0.58587244  0.57698224  0.39828376     0.44700
H1224       H  0.97190241  0.96055761  0.33961497     0.43420
H1225       H  0.93183429  0.92172298  0.59169882     0.43560
H1226       H  0.53159066  0.51096209  0.65145757     0.43920
C1227       C  0.98635746  0.72908557  0.34329988     0.03470
C1228       C  0.99443454  0.75578712  0.36858177    -0.12680
C1229       C  0.99920893  0.78491394  0.34761899     0.00970
C1230       C  0.99565183  0.78743022  0.30143456    -0.11210
C1231       C  0.98725830  0.76106636  0.27612850     0.03460
C1232       C  0.98270087  0.73199209  0.29700355    -0.10630
H1233       H  0.99756152  0.75386025  0.40425626     0.09050
H1234       H  0.99932501  0.80992946  0.28521755     0.06580
H1235       H  0.97707777  0.71144860  0.27703128     0.06430
C1236       C  0.72459693  0.50839906  0.34520979     0.03470
C1237       C  0.75406098  0.51012582  0.36618264    -0.12680
C1238       C  0.78134955  0.51780300  0.34165069     0.00970
C1239       C  0.77920021  0.52315457  0.29565574    -0.11210
C1240       C  0.75034881  0.52046039  0.27421508     0.03460
C1241       C  0.72314923  0.51368400  0.29901475    -0.10630
H1242       H  0.75603871  0.50464017  0.40124393     0.09050
H1243       H  0.80016077  0.52842535  0.27623188     0.06580
H1244       H  0.70089186  0.51191962  0.28193041     0.06430
C1245       C  0.72306367  0.50356789  0.65735299     0.03470
C1246       C  0.75008669  0.51054900  0.63197249    -0.12680
C1247       C  0.77806847  0.51959574  0.65317102     0.00970
C1248       C  0.77894449  0.52159016  0.69984296    -0.11210
C1249       C  0.75221839  0.51408774  0.72524834     0.03460
C1250       C  0.72454373  0.50502612  0.70401577    -0.10630
H1251       H  0.74937118  0.50917669  0.59593472     0.09050
H1252       H  0.80065378  0.52782953  0.71635616     0.06580
H1253       H  0.70380018  0.49975170  0.72394245     0.06430
C1254       C  0.98932249  0.72944263  0.65680953     0.03470
C1255       C  0.99822883  0.75617575  0.63204474    -0.12680
C1256       C  0.00376546  0.78499406  0.65374330     0.00970
C1257       C  0.00092747  0.78705608  0.70017343    -0.11210
C1258       C  0.99217076  0.76068696  0.72500095     0.03460
C1259       C  0.98609695  0.73213195  0.70339407    -0.10630
H1260       H  0.00087136  0.75469409  0.59617120     0.09050
H1261       H  0.00484640  0.80938743  0.71686896     0.06580
H1262       H  0.97927324  0.71182720  0.72307126     0.06430
C1263       C  0.74964624  0.98998098  0.15637072     0.03470
C1264       C  0.75398642  0.99208291  0.20253844    -0.12680
C1265       C  0.74903298  0.52035203  0.22527714     0.00970
C1266       C  0.74080297  0.54733968  0.20168376    -0.11210
C1267       C  0.73582767  0.54590165  0.15535143     0.03460
C1268       C  0.74035779  0.51694657  0.13293379    -0.10630
H1269       H  0.76036470  0.97131079  0.22121481     0.09050
H1270       H  0.73833454  0.56935057  0.21961137     0.06580
H1271       H  0.73580578  0.51515756  0.09756567     0.06430
O1272       O  0.72761324  0.85043990  0.92193309    -0.74950
O1273       O  0.77460974  0.85802541  0.95571879    -0.53860
C1274       C  0.75188781  0.86723134  0.93062607     0.78770
O1275       O  0.65475840  0.77365158  0.08343674    -0.59550
O1276       O  0.64522468  0.72807558  0.04595560    -0.52580
C1277       C  0.63708388  0.75018807  0.07324103     0.70790
O1278       O  0.72783267  0.84861223  0.08324727    -0.74110
O1279       O  0.77546104  0.85649483  0.04998061    -0.54680
C1280       C  0.75257628  0.86523249  0.07566194     0.76790
O1281       O  0.65401984  0.77610024  0.91756633    -0.59260
O1282       O  0.64582792  0.72897486  0.95193215    -0.52380
C1283       C  0.63710027  0.75171369  0.92664842     0.73380
Zr1284     Zr  0.70415475  0.79976858  0.93664795     2.54710
O1285       O  0.66252211  0.83852496  0.94310572    -0.79820
O1286       O  0.70599907  0.80015648  0.85553563    -0.93240
Zr1287     Zr  0.70521739  0.79739120  0.06752189     2.64680
O1288       O  0.66605799  0.83855187  0.07703357    -0.98190
O1289       O  0.70976980  0.79147640  0.14784290    -0.80260
O1290       O  0.72648843  0.82044173  0.00246136    -0.83610
O1291       O  0.68255188  0.77735817  0.00160131    -2.18320
O1292       O  0.74443007  0.68635254  0.91373361    -0.67000
O1293       O  0.69862442  0.67549189  0.94989982    -0.51570
C1294       C  0.72118784  0.66812397  0.92273787     0.71770
O1295       O  0.81884896  0.75409160  0.07895387    -0.59910
O1296       O  0.82768140  0.80235112  0.04884228    -0.51770
C1297       C  0.83586939  0.77869093  0.07308136     0.73570
O1298       O  0.74453918  0.68075490  0.07800956    -0.71310
O1299       O  0.69681224  0.67512249  0.04448625    -0.49980
C1300       C  0.71948442  0.66512525  0.06868978     0.74950
O1301       O  0.81893349  0.75846909  0.91649058    -0.66640
O1302       O  0.82765184  0.80509993  0.95180364    -0.53830
C1303       C  0.83577689  0.78286065  0.92462680     0.73330
Zr1304     Zr  0.76803041  0.73602177  0.93228906     2.77540
O1305       O  0.80910292  0.69708694  0.92034757    -0.97390
O1306       O  0.76117845  0.74396033  0.85271376    -0.78210
Zr1307     Zr  0.76786018  0.73215714  0.06356043     2.70070
O1308       O  0.80730666  0.69110790  0.06799520    -0.79450
O1309       O  0.76241368  0.73538366  0.14426826    -0.98540
Zr1310     Zr  0.78158448  0.81049128  0.00123117     2.21500
Zr1311     Zr  0.69194219  0.72198115  0.99840078     2.11130
O1312       O  0.74707271  0.71195040  0.99689997    -2.47220
O1313       O  0.79038115  0.75510264  0.99880956    -0.79250
O1314       O  0.71331757  0.74505543  0.93197040    -0.71440
O1315       O  0.75972803  0.78724796  0.06760993    -2.32400
O1316       O  0.75899710  0.79061814  0.93374927    -2.28610
O1317       O  0.71340383  0.74226121  0.06632984    -0.73200
H1318       H  0.66036012  0.78186342  0.00188652     0.78800
H1319       H  0.76935199  0.79601328  0.09393477     0.79880
H1320       H  0.75143710  0.68970840  0.99577893     0.82110
H1321       H  0.76837017  0.80052758  0.90788932     0.79720
H1322       H  0.73030592  0.80108778  0.15526135     0.42750
H1323       H  0.73946333  0.73540406  0.14981418     0.41720
H1324       H  0.81034329  0.68404771  0.03677848     0.41400
H1325       H  0.80301202  0.67891727  0.93917037     0.39330
H1326       H  0.74058345  0.73418825  0.84602350     0.42460
H1327       H  0.72591909  0.81106144  0.84782115     0.37250
H1328       H  0.66689351  0.84975177  0.97135745     0.43370
H1329       H  0.64903009  0.83300167  0.05613019     0.39780
H1330       H  0.80632911  0.68966449  0.88932216     0.44700
H1331       H  0.68939083  0.81511193  0.84695213     0.43420
H1332       H  0.65687497  0.83504838  0.10705454     0.43560
H1333       H  0.76921587  0.71451060  0.15491285     0.43920
C1334       C  0.95802542  0.77260895  0.15843882     0.03470
C1335       C  0.95858122  0.77077812  0.20532248    -0.12680
C1336       C  0.98630121  0.76327507  0.22735763     0.00970
C1337       C  0.51369917  0.75800755  0.20286370    -0.11210
C1338       C  0.51404611  0.76103866  0.15640552     0.03460
C1339       C  0.98603069  0.76779661  0.13401418    -0.10630
H1340       H  0.93726543  0.77452397  0.22462017     0.09050
H1341       H  0.53514653  0.75226180  0.22020655     0.06580
H1342       H  0.98602880  0.76908173  0.09797202     0.06430
C1343       C  0.75565128  0.98983768  0.84593601     0.03470
C1344       C  0.75825248  0.98890552  0.79929897    -0.12680
C1345       C  0.75262838  0.51586117  0.77413072     0.00970
C1346       C  0.74432459  0.54383731  0.79560218    -0.11210
C1347       C  0.74220187  0.54534340  0.84230476     0.03460
C1348       C  0.74760383  0.51812677  0.86748258    -0.10630
H1349       H  0.76323405  0.96682837  0.78251694     0.09050
H1350       H  0.73945885  0.56454986  0.77588717     0.06580
H1351       H  0.74518472  0.51883195  0.90344841     0.06430
C1352       C  0.95936203  0.77205856  0.84167802     0.03470
C1353       C  0.96199513  0.77143727  0.79477183    -0.12680
C1354       C  0.99008437  0.76269981  0.77377215     0.00970
C1355       C  0.51637441  0.75591109  0.79926326    -0.11210
C1356       C  0.51467805  0.75748777  0.84574674     0.03460
C1357       C  0.98609456  0.76487685  0.86703743    -0.10630
H1358       H  0.94204515  0.77732746  0.77432129     0.09050
H1359       H  0.53846422  0.75029066  0.78287300     0.06580
H1360       H  0.98488883  0.76488266  0.90307126     0.06430
C1361       C  0.73613205  0.57613404  0.86394492     0.00180
C1362       C  0.70978703  0.58065454  0.89191220    -0.11690
C1363       C  0.70330104  0.61043764  0.91074524     0.02420
C1364       C  0.72331476  0.63633842  0.90110180     0.00100
C1365       C  0.74931644  0.63120156  0.87236700    -0.11630
C1366       C  0.75617782  0.60171477  0.85495770     0.02300
H1367       H  0.69422480  0.56095097  0.89884076     0.15280
H1368       H  0.76542318  0.65015366  0.86401953     0.15280
C1369       C  0.78492155  0.59810232  0.82937381     0.36940
C1370       C  0.67633636  0.61343862  0.93988113     0.36840
N1371       N  0.80797939  0.59514692  0.80909419    -0.43410
N1372       N  0.65467549  0.61570870  0.96324221    -0.43400
C1373       C  0.75280457  0.89933951  0.91002283     0.00180
C1374       C  0.77970961  0.91862778  0.91442363    -0.11690
C1375       C  0.78121376  0.94861152  0.89461973     0.02420
C1376       C  0.75540430  0.95985442  0.87051428     0.00100
C1377       C  0.72860823  0.94121036  0.86660350    -0.11630
C1378       C  0.72691833  0.91140470  0.88553333     0.02300
H1379       H  0.79979345  0.91018236  0.93270371     0.15280
H1380       H  0.70887293  0.94994508  0.84768433     0.15280
C1381       C  0.69802471  0.89432389  0.87779197     0.36940
C1382       C  0.80963407  0.96704732  0.89821917     0.36840
N1383       N  0.67465985  0.88132504  0.87054992    -0.43410
N1384       N  0.83244074  0.98184822  0.90089451    -0.43400
C1385       C  0.86695434  0.77854918  0.09612374     0.00180
C1386       C  0.89095040  0.79978474  0.08342760    -0.11690
C1387       C  0.92090549  0.79859603  0.10301795     0.02420
C1388       C  0.92729152  0.77577080  0.13580709     0.00100
C1389       C  0.90344204  0.75494970  0.14864804    -0.11630
C1390       C  0.87370339  0.75616387  0.12996517     0.02300
H1391       H  0.88648292  0.81714238  0.05790993     0.15280
H1392       H  0.90817125  0.73727836  0.17371724     0.15280
C1393       C  0.85101659  0.73384350  0.14740259     0.36940
C1394       C  0.94430366  0.82154146  0.08995099     0.36840
N1395       N  0.83341530  0.71561819  0.16184194    -0.43410
N1396       N  0.96306292  0.83998512  0.07956983    -0.43400
C1397       C  0.60504171  0.75076374  0.09406427     0.00180
C1398       C  0.59925466  0.77420794  0.12650255    -0.11690
C1399       C  0.56959830  0.77865401  0.14508706     0.02420
C1400       C  0.54456906  0.75883593  0.13269702     0.00100
C1401       C  0.54971265  0.73541008  0.10035427    -0.11630
C1402       C  0.57962720  0.73125041  0.08084051     0.02300
H1403       H  0.61791597  0.78980128  0.13741889     0.15280
H1404       H  0.53046495  0.72002937  0.09091133     0.15280
C1405       C  0.58322046  0.70701624  0.04744479     0.36940
C1406       C  0.56537587  0.80428766  0.17640230     0.36840
N1407       N  0.58592847  0.68747404  0.02076373    -0.43410
N1408       N  0.56197934  0.82475930  0.20149026    -0.43400
C1409       C  0.86676774  0.78390654  0.90100015     0.00180
C1410       C  0.89270498  0.79917460  0.92034539    -0.11690
C1411       C  0.92303521  0.79648616  0.90146165     0.02420
C1412       C  0.92792607  0.77760407  0.86296266     0.00100
C1413       C  0.90176844  0.76326263  0.84323919    -0.11630
C1414       C  0.87161503  0.76684943  0.86078297     0.02300
H1415       H  0.88946843  0.81262778  0.95079962     0.15280
H1416       H  0.90481904  0.74864662  0.81382977     0.15280
C1417       C  0.84624084  0.75276839  0.83582437     0.36940
C1418       C  0.94838029  0.81388113  0.92175718     0.36840
N1419       N  0.82629482  0.74135246  0.81530519    -0.43410
N1420       N  0.96867472  0.82783322  0.93811827    -0.43400
C1421       C  0.54413497  0.75562219  0.87094096     0.00180
C1422       C  0.55655460  0.72626964  0.88240868    -0.11690
C1423       C  0.58665885  0.72400326  0.90097310     0.02420
C1424       C  0.60479463  0.75160158  0.90799401     0.00100
C1425       C  0.59165505  0.78091104  0.89703129    -0.11630
C1426       C  0.56186923  0.78305737  0.87849321     0.02300
H1427       H  0.54307502  0.70508418  0.87564967     0.15280
H1428       H  0.60477776  0.80249460  0.90257587     0.15280
C1429       C  0.55044727  0.81364807  0.86564533     0.36940
C1430       C  0.59872199  0.69308960  0.91031133     0.36840
N1431       N  0.54129127  0.83806293  0.85504782    -0.43410
N1432       N  0.60829061  0.66823643  0.91770062    -0.43400
C1433       C  0.71835277  0.63266714  0.08562782     0.00180
C1434       C  0.70099196  0.62574792  0.12422733    -0.11690
C1435       C  0.70494385  0.59698248  0.14631609     0.02420
C1436       C  0.72723791  0.57485856  0.13015638     0.00100
C1437       C  0.74302669  0.58129603  0.08981332    -0.11630
C1438       C  0.73861565  0.60975548  0.06750047     0.02300
H1439       H  0.68522627  0.64329321  0.13804409     0.15280
H1440       H  0.75992561  0.56464369  0.07652827     0.15280
C1441       C  0.75581404  0.61538738  0.02652848     0.36940
C1442       C  0.68577307  0.59092516  0.18533906     0.36840
N1443       N  0.76944925  0.61985552  0.99359276    -0.43410
N1444       N  0.67049112  0.58619068  0.21673251    -0.43400
C1445       C  0.75365681  0.89680575  0.09775863     0.00180
C1446       C  0.77134894  0.92151637  0.07861929    -0.11690
C1447       C  0.77042384  0.95215636  0.09668985     0.02420
C1448       C  0.75147125  0.95852015  0.13453129     0.00100
C1449       C  0.73428559  0.93385101  0.15386997    -0.11630
C1450       C  0.73536018  0.90340361  0.13649578     0.02300
H1451       H  0.78551514  0.91707806  0.04906733     0.15280
H1452       H  0.71975010  0.93844198  0.18306271     0.15280
C1453       C  0.71759062  0.87960070  0.16022174     0.36940
C1454       C  0.78971626  0.97638950  0.07664088     0.36840
N1455       N  0.70312335  0.86093007  0.17962798    -0.43410
N1456       N  0.80521418  0.99584450  0.06066931    -0.43400
C1457       C  0.51551724  0.87471082  0.59049641     0.00180
C1458       C  0.98545058  0.86241414  0.60047453    -0.11690
C1459       C  0.98147115  0.83278003  0.61922684     0.02420
C1460       C  0.50783090  0.81429593  0.62823899     0.00100
C1461       C  0.53796587  0.82556692  0.61703083    -0.11630
C1462       C  0.54201944  0.85555009  0.59788246     0.02300
H1463       H  0.96463386  0.87607393  0.59395910     0.15280
H1464       H  0.55830408  0.81130123  0.62431863     0.15280
C1465       C  0.57346565  0.86637198  0.58783261     0.36940
C1466       C  0.95003329  0.82217718  0.63035716     0.36840
N1467       N  0.59869907  0.87499061  0.57966817    -0.43410
N1468       N  0.92492022  0.81366660  0.63945686    -0.43400
C1469       C  0.98608984  0.69790715  0.63547446     0.00180
C1470       C  0.50177089  0.67276895  0.65520214    -0.11690
C1471       C  0.50033539  0.64250645  0.63738204     0.02420
C1472       C  0.98343780  0.63661063  0.59758282     0.00100
C1473       C  0.96689414  0.66162819  0.57832354    -0.11630
C1474       C  0.96797946  0.69206535  0.59699128     0.02300
H1475       H  0.51568666  0.67685627  0.68479989     0.15280
H1476       H  0.95368868  0.65763086  0.54808795     0.15280
C1477       C  0.94979937  0.71659832  0.57663294     0.36940
C1478       C  0.51648487  0.61821555  0.66159027     0.36840
N1479       N  0.93519489  0.73625658  0.56031096    -0.43410
N1480       N  0.52967440  0.59925430  0.68155398    -0.43400
C1481       C  0.51505270  0.87310221  0.41361955     0.00180
C1482       C  0.98500299  0.85907494  0.41336112    -0.11690
C1483       C  0.97989417  0.82977332  0.39371571     0.02420
C1484       C  0.50515373  0.81362116  0.37400498     0.00100
C1485       C  0.53556442  0.82662765  0.37594348    -0.11630
C1486       C  0.54075933  0.85614968  0.39604721     0.02300
H1487       H  0.96507649  0.87153509  0.42753149     0.15280
H1488       H  0.55502684  0.81412759  0.36063489     0.15280
C1489       C  0.57214366  0.86910742  0.39619959     0.36940
C1490       C  0.94819181  0.81751202  0.39190337     0.36840
N1491       N  0.59735917  0.87940968  0.39652752    -0.43410
N1492       N  0.92282371  0.80768745  0.39019205    -0.43400
C1493       C  0.98504609  0.69745228  0.36398843     0.00180
C1494       C  0.50442634  0.67405968  0.34604426    -0.11690
C1495       C  0.50519134  0.64394650  0.36431356     0.02420
C1496       C  0.98619551  0.63649207  0.40210443     0.00100
C1497       C  0.96615274  0.65987592  0.41945595    -0.11630
C1498       C  0.96547092  0.69014020  0.40078468     0.02300
H1499       H  0.51948730  0.67952216  0.31769148     0.15280
H1500       H  0.95134729  0.65475045  0.44815182     0.15280
C1501       C  0.94401754  0.71301134  0.41925955     0.36940
C1502       C  0.52572964  0.62147148  0.34275480     0.36840
N1503       N  0.92677313  0.73133371  0.43400779    -0.43410
N1504       N  0.54238552  0.60378229  0.32526899    -0.43400
C1505       C  0.69205367  0.49877535  0.63617302     0.00180
C1506       C  0.66796961  0.51883950  0.64971585    -0.11690
C1507       C  0.63791104  0.51617680  0.63244884     0.02420
C1508       C  0.63109757  0.99310122  0.59915695     0.00100
C1509       C  0.65531722  0.97244582  0.58605188    -0.11630
C1510       C  0.68559628  0.97503763  0.60445216     0.02300
H1511       H  0.67278887  0.53707010  0.67421110     0.15280
H1512       H  0.65080498  0.95456374  0.56103823     0.15280
C1513       C  0.70931690  0.95262881  0.59140551     0.36940
C1514       C  0.61507739  0.53801112  0.65041261     0.36840
N1515       N  0.72835556  0.93458639  0.58121445    -0.43410
N1516       N  0.59726286  0.55582562  0.66506376    -0.43400
C1517       C  0.80776077  0.52119130  0.62753911     0.00180
C1518       C  0.82144768  0.99265743  0.61585608    -0.11690
C1519       C  0.85086099  0.99154167  0.59528386     0.02420
C1520       C  0.86778100  0.51977012  0.58607845     0.00100
C1521       C  0.85327748  0.54867531  0.59631954    -0.11630
C1522       C  0.82345597  0.54953958  0.61702575     0.02300
H1523       H  0.80910489  0.97088084  0.62358484     0.15280
H1524       H  0.86550626  0.57055828  0.58920766     0.15280
C1525       C  0.80932736  0.57955633  0.62693921     0.36940
C1526       C  0.86185637  0.96059757  0.58343252     0.36840
N1527       N  0.79790217  0.60364331  0.63459198    -0.43410
N1528       N  0.86861732  0.93497163  0.57478004    -0.43400
C1529       C  0.69518776  0.50045268  0.37053447     0.00180
C1530       C  0.67334352  0.97934306  0.35150308    -0.11690
C1531       C  0.64359625  0.97445776  0.37086787     0.02420
C1532       C  0.63557323  0.99011290  0.41066964     0.00100
C1533       C  0.65772185  0.50982569  0.43104091    -0.11630
C1534       C  0.68722055  0.51527759  0.41141482     0.02300
H1535       H  0.67909416  0.96742461  0.32050523     0.15280
H1536       H  0.65128330  0.52231576  0.46136069     0.15280
C1537       C  0.70764908  0.53801185  0.43244490     0.36940
C1538       C  0.62100250  0.95498713  0.34790837     0.36840
N1539       N  0.72398291  0.55615919  0.44953743    -0.43410
N1540       N  0.60280534  0.93959174  0.32932398    -0.43400
C1541       C  0.81251080  0.51875009  0.36344005     0.00180
C1542       C  0.81739645  0.53876682  0.40010985    -0.11690
C1543       C  0.84684832  0.54072546  0.42077122     0.02420
C1544       C  0.87217685  0.52226102  0.40464856     0.00100
C1545       C  0.86691941  0.50225318  0.36788295    -0.11630
C1546       C  0.83760009  0.50017249  0.34763677     0.02300
H1547       H  0.79813199  0.55302617  0.41251454     0.15280
H1548       H  0.88577586  0.98771472  0.35488721     0.15280
C1549       C  0.83361151  0.97777695  0.31174496     0.36940
C1550       C  0.84988834  0.56119420  0.45898824     0.36840
N1551       N  0.83038332  0.95984750  0.28301443    -0.43410
N1552       N  0.85215202  0.57770411  0.48955149    -0.43400
loop_ 
_geom_bond_atom_site_label_1 
_geom_bond_atom_site_label_2 
_geom_bond_distance 
_geom_bond_site_symmetry_2 
_ccdc_geom_bond_type 
O1          Zr13   2.427       .  S
O1          C391   1.287       .  A
O2          Zr39   2.438       .  S
O2            C3   1.289       .  A
C3          O389   1.287   1_545  A
C3          C380   1.494       .  S
O4          Zr16   2.422       .  S
O4          C782   1.285       .  A
O5          Zr40   2.445       .  S
O5            C6   1.290       .  A
C6          O780   1.285   1_455  A
C6          C293   1.489       .  S
O7          Zr16   2.424       .  S
O7          C397   1.285       .  A
O8          Zr39   2.458       .  S
O8            C9   1.294       .  A
C9          O395   1.285   1_545  A
C9          C356   1.493       .  S
O10         Zr13   2.416       .  S
O10         C788   1.285       .  A
O11         Zr40   2.456       .  S
O11          C12   1.292       .  A
C12         O786   1.285   1_455  A
C12         C317   1.482       .  S
Zr13         O14   2.434       .  S
Zr13         O15   2.434       .  S
Zr13         O19   2.363       .  S
Zr13         O20   2.365       .  S
Zr13        O819   2.372       .  S
Zr13        O433   2.359       .  S
O14          H57   0.990       .  S
O15          H56   0.990       .  S
O15          H60   0.990       .  S
Zr16         O17   2.429       .  S
Zr16         O18   2.435       .  S
Zr16         O20   2.352       .  S
Zr16         O19   2.364       .  S
Zr16        O432   2.365       .  S
Zr16        O822   2.367       .  S
O17          H58   0.990       .  S
O17          H61   0.990       .  S
O18          H51   0.990       .  S
O19        Zr427   2.380       .  S
O20        Zr816   2.389       .  S
O20          H47   0.964       .  S
O21         Zr33   2.437       .  S
O21         C411   1.286   1_545  A
O22         Zr40   2.438       .  S
O22          C23   1.289       .  A
C23         O409   1.286       .  A
C23         C368   1.471       .  S
O24         Zr36   2.409       .  S
O24         C802   1.282   1_455  A
O25         Zr39   2.456       .  S
O25          C26   1.292       .  A
C26         O800   1.282       .  A
C26         C308   1.492       .  S
O27         Zr36   2.396       .  S
O27         C417   1.278   1_545  A
O28         Zr40   2.471       .  S
O28          C29   1.295       .  A
C29         O415   1.278       .  A
C29         C344   1.499       .  S
O30         Zr33   2.422       .  S
O30         C808   1.284   1_455  A
O31         Zr39   2.445       .  S
O31          C32   1.291       .  A
C32         O806   1.284       .  A
C32         C332   1.493       .  S
Zr33         O34   2.437       .  S
Zr33         O35   2.434       .  S
Zr33         O41   2.360       .  S
Zr33         O42   2.370       .  S
Zr33        O821   2.370   1_455  S
Zr33        O431   2.369   1_545  S
O34          H54   0.990       .  S
O34          H59   0.990       .  S
O35          H55   0.990       .  S
Zr36         O37   2.433       .  S
Zr36         O38   2.435       .  S
Zr36         O42   2.357       .  S
Zr36         O41   2.361       .  S
Zr36        O434   2.365   1_545  S
Zr36        O820   2.361   1_455  S
O37          H53   0.990       .  S
O38          H52   0.990       .  S
O38          H62   0.990       .  S
Zr39         O44   2.390       .  S
Zr39         O45   2.401       .  S
Zr39        O407   2.380   1_545  S
Zr39        O818   2.384       .  S
Zr40         O43   2.402       .  S
Zr40         O46   2.396       .  S
Zr40        O796   2.389   1_455  S
Zr40        O429   2.391       .  S
O41        Zr428   2.391   1_545  S
O41          H49   0.965       .  S
O42        Zr815   2.384   1_455  S
O43        Zr789   2.372   1_455  S
O43        Zr421   2.369       .  S
O44        Zr404   2.365   1_545  S
O44        Zr812   2.361       .  S
O44          H48   0.966       .  S
O45        Zr401   2.359   1_545  S
O45        Zr809   2.370       .  S
O45          H50   0.966       .  S
O46        Zr792   2.367   1_455  S
O46        Zr424   2.365       .  S
C63         C329   1.483       .  S
C63          C64   1.406       .  A
C63          C68   1.406       .  A
C64          C65   1.404       .  A
C64          H69   1.084       .  S
C65        C1096   1.474       .  S
C65          C66   1.400       .  A
C66          C67   1.398       .  A
C66          H70   1.084       .  S
C67         C172   1.468       .  S
C67          C68   1.399       .  A
C68          H71   1.084       .  S
C72         C365   1.496       .  S
C72          C73   1.410       .  A
C72          C77   1.407       .  A
C73          C74   1.407       .  A
C73          H78   1.083       .  S
C74         C377   1.485       .  S
C74          C75   1.404       .  A
C75          C76   1.396       .  A
C75          H79   1.084       .  S
C76         C101   1.470       .  S
C76          C77   1.400       .  A
C77          H80   1.084       .  S
C81         C341   1.483   1_545  S
C81          C82   1.405       .  A
C81          C86   1.404       .  A
C82          C83   1.407       .  A
C82          H87   1.084       .  S
C83         C353   1.475       .  S
C83          C84   1.404       .  A
C84          C85   1.400       .  A
C84          H88   1.084       .  S
C85         C181   1.469       .  S
C85          C86   1.396       .  A
C86          H89   1.085   1_545  S
C90         C305   1.490       .  S
C90          C91   1.408       .  A
C90          C95   1.408       .  A
C91          C92   1.405       .  A
C91          H96   1.083       .  S
C92        C1072   1.473       .  S
C92          C93   1.400       .  A
C93          C94   1.395       .  A
C93          H97   1.084       .  S
C94         C190   1.468       .  S
C94          C95   1.398       .  A
C95          H98   1.084       .  S
C99         C284   1.489       .  S
C99         C100   1.402       .  A
C99         C492   1.407       .  A
C100        C489   1.396       .  A
C100        H105   1.085       .  S
C101        C102   1.398       .  A
C101        C488   1.396   1_545  A
C102        C103   1.410       .  A
C102        H106   1.083       .  S
C103        C272   1.496       .  S
C103        C104   1.414       .  A
C104        C487   1.407   1_545  A
C104        H107   1.083       .  S
O108       Zr120   2.409       .  S
O108        C110   1.281       .  A
O109       Zr146   2.464   1_556  S
O109        C110   1.295       .  A
C110        C209   1.500       .  S
O111       Zr123   2.413       .  S
O111        C113   1.284       .  A
O112       Zr147   2.451   1_554  S
O112        C113   1.291       .  A
C113        C233   1.495       .  S
O114       Zr123   2.422       .  S
O114        C116   1.284       .  A
O115       Zr146   2.451       .  S
O115        C116   1.292       .  A
C116        C281   1.495       .  S
O117       Zr120   2.427       .  S
O117        C119   1.287       .  A
O118       Zr147   2.439       .  S
O118        C119   1.289       .  A
C119        C260   1.490       .  S
Zr120       O121   2.432       .  S
Zr120       O122   2.435       .  S
Zr120       O126   2.365   1_556  S
Zr120       O127   2.350   1_556  S
Zr120       O150   2.363       .  S
Zr120       O152   2.370       .  S
O121        H164   0.990       .  S
O122        H163   0.990       .  S
O122        H167   0.990       .  S
Zr123       O124   2.438       .  S
Zr123       O125   2.434       .  S
Zr123       O127   2.363       .  S
Zr123       O126   2.358       .  S
Zr123       O151   2.363       .  S
Zr123       O153   2.371       .  S
O124        H165   0.990       .  S
O124        H168   0.990       .  S
O125        H158   0.990       .  S
O126       Zr146   2.386       .  S
O127       Zr147   2.391   1_554  S
O127        H154   0.965       .  S
O128       Zr140   2.399       .  S
O128        C130   1.281       .  A
O129       Zr147   2.466       .  S
O129        C130   1.293       .  A
C130        C200   1.500       .  S
O131       Zr143   2.406       .  S
O131        C133   1.280       .  A
O132       Zr146   2.465       .  S
O132        C133   1.295       .  A
C133        C221   1.499       .  S
O134       Zr143   2.433       .  S
O134        C136   1.286       .  A
O135       Zr147   2.440   1_554  S
O135        C136   1.289       .  A
C136        C269   1.472       .  S
O137       Zr140   2.407       .  S
O137        C139   1.281       .  A
O138       Zr146   2.459   1_556  S
O138        C139   1.293       .  A
C139        C245   1.492       .  S
Zr140       O141   2.437       .  S
Zr140       O142   2.434       .  S
Zr140       O148   2.361       .  S
Zr140       O149   2.359       .  S
Zr140       O152   2.354       .  S
Zr140       O150   2.363       .  S
O141        H161   0.990       .  S
O141        H166   0.990       .  S
O142        H162   0.990       .  S
Zr143       O144   2.433       .  S
Zr143       O145   2.435       .  S
Zr143       O149   2.369   1_554  S
Zr143       O148   2.353   1_554  S
Zr143       O153   2.361       .  S
Zr143       O151   2.371       .  S
O144        H160   0.990       .  S
O145        H159   0.990       .  S
O145        H169   0.990       .  S
Zr146       O149   2.387   1_554  S
Zr146       O151   2.404       .  S
Zr146       O152   2.399   1_554  S
Zr147       O148   2.388       .  S
Zr147       O150   2.395       .  S
Zr147       O153   2.398   1_556  S
O148        H156   0.965       .  S
O151        H155   0.966       .  S
O152        H157   0.966       .  S
C170        C224   1.487       .  S
C170        C171   1.410       .  A
C170        C175   1.409       .  A
C171        C172   1.397       .  A
C171        H176   1.084       .  S
C172        C949   1.392       .  A
C173        C174   1.401       .  A
C173        C948   1.392   1_455  A
C173        H177   1.085       .  S
C174        C236   1.479       .  S
C174        C951   1.406   1_455  A
C175        C950   1.406       .  A
C175        H178   1.083       .  S
C179        C212   1.475       .  S
C179        C180   1.403       .  A
C179        C572   1.406       .  A
C180        C569   1.398       .  A
C180        H185   1.084       .  S
C181        C182   1.396       .  A
C181        C568   1.398   1_545  A
C182        C183   1.405       .  A
C182        H186   1.084       .  S
C183        C197   1.482       .  S
C183        C184   1.405       .  A
C184        C567   1.406   1_545  A
C184        H187   1.084       .  S
C188        C248   1.497       .  S
C188        C189   1.411       .  A
C188        C193   1.411       .  A
C189        C190   1.398       .  A
C189        H194   1.084       .  S
C190        C967   1.394       .  A
C191        C192   1.398       .  A
C191        C966   1.394   1_455  A
C191        H195   1.085       .  S
C192        C257   1.473       .  S
C192        C969   1.406   1_455  A
C193        C968   1.406       .  A
C193        H196   1.082       .  S
C197        C198   1.408       .  A
C197        C202   1.404       .  A
C198        C199   1.412       .  A
C198        H203   1.084       .  S
C199        C200   1.417       .  A
C199        C206   1.442       .  S
C200        C201   1.414       .  A
C201        C202   1.388       .  A
C201        H204   1.083       .  S
C202        C205   1.447       .  S
C205        N207   1.157       .  T
C206        N208   1.157       .  T
C209        C210   1.412       .  A
C209        C214   1.429       .  A
C210        C211   1.409       .  A
C210        H215   1.084       .  S
C211        C212   1.408       .  A
C211        C218   1.442       .  S
C212        C213   1.391       .  A
C213        C214   1.391       .  A
C213        H216   1.086       .  S
C214        C217   1.445       .  S
C217        N219   1.157       .  T
C218        N220   1.157       .  T
C221        C222   1.410       .  A
C221        C226   1.427       .  A
C222        C223   1.411       .  A
C222        H227   1.084       .  S
C223        C224   1.414       .  A
C223        C230   1.443       .  S
C224        C225   1.395       .  A
C225        C226   1.391       .  A
C225        H228   1.086       .  S
C226        C229   1.446       .  S
C229        N231   1.157       .  T
C230        N232   1.157       .  T
C233        C234   1.412       .  A
C233        C238   1.418       .  A
C234        C235   1.389       .  A
C234        H239   1.084       .  S
C235        C236   1.407       .  A
C235        C242   1.447       .  S
C236        C237   1.405       .  A
C237        C238   1.408       .  A
C237        H240   1.085       .  S
C238        C241   1.442       .  S
C241        N243   1.157       .  T
C242        N244   1.157       .  T
C245        C246   1.407       .  A
C245        C250   1.420       .  A
C246        C247   1.410       .  A
C246        H251   1.084       .  S
C247        C248   1.419       .  A
C247        C254   1.443       .  S
C248        C249   1.402       .  A
C249        C250   1.392       .  A
C249        H252   1.085       .  S
C250        C253   1.446       .  S
C253        N255   1.157       .  T
C254        N256   1.157       .  T
C257        C258   1.403       .  A
C257        C262   1.404       .  A
C258        C259   1.406       .  A
C258        H263   1.085       .  S
C259        C260   1.417       .  A
C259        C266   1.443       .  S
C260        C261   1.410       .  A
C261        C262   1.393       .  A
C261        H264   1.085       .  S
C262        C265   1.446       .  S
C265        N267   1.157       .  T
C266        N268   1.157       .  T
C269        C270   1.399       .  A
C269        C274   1.409       .  A
C270        C271   1.405       .  A
C270        H275   1.085       .  S
C271        C272   1.421       .  A
C271        C278   1.444       .  S
C272        C273   1.406       .  A
C273        C274   1.399       .  A
C273        H276   1.084       .  S
C274        C277   1.445       .  S
C277        N279   1.157   1_554  T
C278        N280   1.157       .  T
C281        C282   1.410       .  A
C281        C286   1.421       .  A
C282        C283   1.409       .  A
C282        H287   1.084       .  S
C283        C284   1.413       .  A
C283        C290   1.443       .  S
C284        C285   1.400       .  A
C285        C286   1.394       .  A
C285        H288   1.086       .  S
C286        C289   1.445       .  S
C289        N291   1.157       .  T
C290        N292   1.157       .  T
C293        C298   1.415       .  A
C293       C1070   1.410   1_455  A
C294        C295   1.390       .  A
C294       C1069   1.410       .  A
C294        H299   1.082       .  S
C295       C1072   1.403       .  A
C295        C302   1.446       .  S
C296        C868   1.473       .  S
C296        C297   1.405       .  A
C296       C1071   1.403   1_455  A
C297        C298   1.409       .  A
C297        H300   1.084       .  S
C298        C301   1.443       .  S
C301        N303   1.157       .  T
C302        N304   1.157       .  T
C305        C310   1.415       .  A
C305       C1082   1.399       .  A
C306        C307   1.392       .  A
C306       C1081   1.399   1_455  A
C306        H311   1.085       .  S
C307       C1084   1.421   1_455  A
C307        C314   1.446       .  S
C308        C309   1.408       .  A
C308       C1083   1.421       .  A
C309        C310   1.409       .  A
C309        H312   1.084       .  S
C310        C313   1.443       .  S
C313        N315   1.157       .  T
C314        N316   1.157       .  T
C317        C322   1.411       .  A
C317       C1094   1.408   1_455  A
C318        C319   1.393       .  A
C318       C1093   1.408       .  A
C318        H323   1.085       .  S
C319       C1096   1.404       .  A
C319        C326   1.446       .  S
C320        C841   1.474   1_455  S
C320        C321   1.407       .  A
C320       C1095   1.404   1_455  A
C321        C322   1.408       .  A
C321        H324   1.084       .  S
C322        C325   1.442       .  S
C325        N327   1.157       .  T
C326        N328   1.157       .  T
C329        C334   1.412       .  A
C329       C1106   1.399       .  A
C330        C331   1.395       .  A
C330       C1105   1.399   1_455  A
C330        H335   1.086       .  S
C331       C1108   1.422   1_455  A
C331        C338   1.446       .  S
C332        C333   1.409       .  A
C332       C1107   1.422       .  A
C333        C334   1.405       .  A
C333        H336   1.084       .  S
C334        C337   1.443       .  S
C337        N339   1.157       .  T
C338        N340   1.157       .  T
C341        C342   1.394   1_565  A
C341        C734   1.412       .  A
C342        C343   1.389       .  A
C342        H347   1.086       .  S
C343        C732   1.428   1_545  A
C343        C350   1.447       .  S
C344        C345   1.410       .  A
C344        C731   1.428       .  A
C345        C346   1.411       .  A
C345        H348   1.084       .  S
C346        C729   1.412       .  A
C346        C349   1.443       .  S
C349        N351   1.157       .  T
C350        N352   1.157       .  T
C353        C358   1.410       .  A
C353        C742   1.391   1_545  A
C354        C355   1.392       .  A
C354        C741   1.391       .  A
C354        H359   1.086       .  S
C355        C744   1.422       .  A
C355        C362   1.441       .  S
C356        C357   1.410       .  A
C356        C743   1.422   1_545  A
C357        C358   1.409       .  A
C357        H360   1.084       .  S
C358        C361   1.442       .  S
C361        N363   1.157       .  T
C362        N364   1.156       .  T
C365        C370   1.416       .  A
C365        C754   1.412   1_545  A
C366        C367   1.403       .  A
C366        C753   1.412       .  A
C366        H371   1.084       .  S
C367        C368   1.405       .  A
C367        C374   1.444       .  S
C368        C757   1.401       .  A
C369        C370   1.401       .  A
C369        C756   1.401   1_545  A
C369        H372   1.086       .  S
C370        C373   1.444       .  S
C373        N375   1.157       .  T
C374        N376   1.157       .  T
C377        C378   1.405       .  A
C377        C382   1.409       .  A
C378        C379   1.406       .  A
C378        H383   1.085       .  S
C379        C380   1.418       .  A
C379        C386   1.443       .  S
C380        C381   1.409       .  A
C381        C382   1.396       .  A
C381        H772   1.085   1_545  S
C382        C773   1.446   1_545  S
H384        C769   1.085       .  S
C385        C770   1.446       .  S
C385        N387   1.157       .  T
C386        N388   1.157       .  T
O389       Zr401   2.427       .  S
O390       Zr427   2.438       .  S
O390        C391   1.289       .  A
C391        C768   1.494       .  S
O392       Zr404   2.422       .  S
O392       C1170   1.285       .  A
O393       Zr428   2.445       .  S
O393        C394   1.290       .  A
C394       O1168   1.285   1_455  A
C394        C681   1.489       .  S
O395       Zr404   2.424       .  S
O396       Zr427   2.458       .  S
O396        C397   1.294       .  A
C397        C744   1.493       .  S
O398       Zr401   2.416       .  S
O398       C1176   1.285       .  A
O399       Zr428   2.456       .  S
O399        C400   1.292       .  A
C400       O1174   1.285   1_455  A
C400        C705   1.482       .  S
Zr401       O402   2.434       .  S
Zr401       O403   2.434       .  S
Zr401       O407   2.363       .  S
Zr401       O408   2.365       .  S
Zr401      O1207   2.372       .  S
O402        H445   0.990       .  S
O403        H444   0.990       .  S
O403        H448   0.990       .  S
Zr404       O405   2.429       .  S
Zr404       O406   2.435       .  S
Zr404       O408   2.352       .  S
Zr404       O407   2.364       .  S
Zr404      O1210   2.367       .  S
O405        H446   0.990       .  S
O405        H449   0.990       .  S
O406        H439   0.990       .  S
O408      Zr1204   2.389       .  S
O408        H435   0.964       .  S
O409       Zr421   2.437       .  S
O410       Zr428   2.438       .  S
O410        C411   1.289       .  A
C411        C756   1.471       .  S
O412       Zr424   2.409       .  S
O412       C1190   1.282   1_455  A
O413       Zr427   2.456       .  S
O413        C414   1.292       .  A
C414       O1188   1.282       .  A
C414        C696   1.492       .  S
O415       Zr424   2.396       .  S
O416       Zr428   2.471       .  S
O416        C417   1.295       .  A
C417        C732   1.499       .  S
O418       Zr421   2.422       .  S
O418       C1196   1.284   1_455  A
O419       Zr427   2.445       .  S
O419        C420   1.291       .  A
C420       O1194   1.284       .  A
C420        C720   1.493       .  S
Zr421       O422   2.437       .  S
Zr421       O423   2.434       .  S
Zr421       O429   2.360       .  S
Zr421       O430   2.370       .  S
Zr421      O1209   2.370   1_455  S
O422        H442   0.990       .  S
O422        H447   0.990       .  S
O423        H443   0.990       .  S
Zr424       O425   2.433       .  S
Zr424       O426   2.435       .  S
Zr424       O430   2.357       .  S
Zr424       O429   2.361       .  S
Zr424      O1208   2.361   1_455  S
O425        H441   0.990       .  S
O426        H440   0.990       .  S
O426        H450   0.990       .  S
Zr427      O1206   2.384       .  S
Zr427       O432   2.390       .  S
Zr427       O433   2.401       .  S
Zr428      O1184   2.389   1_455  S
Zr428       O431   2.402       .  S
Zr428       O434   2.396       .  S
O429        H437   0.965       .  S
O430      Zr1203   2.384   1_455  S
O431      Zr1177   2.372   1_455  S
O432      Zr1200   2.361       .  S
O432        H436   0.966       .  S
O433      Zr1197   2.370       .  S
O433        H438   0.966       .  S
O434      Zr1180   2.367   1_455  S
C451        C717   1.483       .  S
C451        C452   1.406       .  A
C451        C456   1.406       .  A
C452        C453   1.404       .  A
C452        H457   1.084       .  S
C453       C1484   1.474       .  S
C453        C454   1.400       .  A
C454        C455   1.398       .  A
C454        H458   1.084       .  S
C455        C560   1.468       .  S
C455        C456   1.399       .  A
C456        H459   1.084       .  S
C460        C753   1.496       .  S
C460        C461   1.410       .  A
C460        C465   1.407       .  A
C461        C462   1.407       .  A
C461        H466   1.083       .  S
C462        C765   1.485       .  S
C462        C463   1.404       .  A
C463        C464   1.396       .  A
C463        H467   1.084       .  S
C464        C489   1.470       .  S
C464        C465   1.400       .  A
C465        H468   1.084       .  S
C469        C729   1.483       .  S
C469        C470   1.405       .  A
C469        C474   1.404       .  A
C470        C471   1.407       .  A
C470        H475   1.084       .  S
C471        C741   1.475       .  S
C471        C472   1.404       .  A
C472        C473   1.400       .  A
C472        H476   1.084       .  S
C473        C569   1.469       .  S
C473        C474   1.396       .  A
C474        H477   1.085       .  S
C478        C693   1.490       .  S
C478        C479   1.408       .  A
C478        C483   1.408       .  A
C479        C480   1.405       .  A
C479        H484   1.083       .  S
C480       C1460   1.473       .  S
C480        C481   1.400       .  A
C481        C482   1.395       .  A
C481        H485   1.084       .  S
C482        C578   1.468       .  S
C482        C483   1.398       .  A
C483        H486   1.084       .  S
C487        C672   1.489       .  S
C487        C488   1.402       .  A
C488        H493   1.085       .  S
C489        C490   1.398       .  A
C490        C491   1.410       .  A
C490        H494   1.083       .  S
C491        C660   1.496       .  S
C491        C492   1.414       .  A
C492        H495   1.083       .  S
O496       Zr508   2.409       .  S
O496        C498   1.281       .  A
O497       Zr534   2.464   1_556  S
O497        C498   1.295       .  A
C498        C597   1.500       .  S
O499       Zr511   2.413       .  S
O499        C501   1.284       .  A
O500       Zr535   2.451   1_554  S
O500        C501   1.291       .  A
C501        C621   1.495       .  S
O502       Zr511   2.422       .  S
O502        C504   1.284       .  A
O503       Zr534   2.451       .  S
O503        C504   1.292       .  A
C504        C669   1.495       .  S
O505       Zr508   2.427       .  S
O505        C507   1.287       .  A
O506       Zr535   2.439       .  S
O506        C507   1.289       .  A
C507        C648   1.490       .  S
Zr508       O509   2.432       .  S
Zr508       O510   2.435       .  S
Zr508       O514   2.365   1_556  S
Zr508       O515   2.350   1_556  S
Zr508       O538   2.363       .  S
Zr508       O540   2.370       .  S
O509        H552   0.990       .  S
O510        H551   0.990       .  S
O510        H555   0.990       .  S
Zr511       O512   2.438       .  S
Zr511       O513   2.434       .  S
Zr511       O515   2.363       .  S
Zr511       O514   2.358       .  S
Zr511       O539   2.363       .  S
Zr511       O541   2.371       .  S
O512        H553   0.990       .  S
O512        H556   0.990       .  S
O513        H546   0.990       .  S
O514       Zr534   2.386       .  S
O515       Zr535   2.391   1_554  S
O515        H542   0.965       .  S
O516       Zr528   2.399       .  S
O516        C518   1.281       .  A
O517       Zr535   2.466       .  S
O517        C518   1.293       .  A
C518        C588   1.500       .  S
O519       Zr531   2.406       .  S
O519        C521   1.280       .  A
O520       Zr534   2.465       .  S
O520        C521   1.295       .  A
C521        C609   1.499       .  S
O522       Zr531   2.433       .  S
O522        C524   1.286       .  A
O523       Zr535   2.440   1_554  S
O523        C524   1.289       .  A
C524        C657   1.472       .  S
O525       Zr528   2.407       .  S
O525        C527   1.281       .  A
O526       Zr534   2.459   1_556  S
O526        C527   1.293       .  A
C527        C633   1.492       .  S
Zr528       O529   2.437       .  S
Zr528       O530   2.434       .  S
Zr528       O536   2.361       .  S
Zr528       O537   2.359       .  S
Zr528       O540   2.354       .  S
Zr528       O538   2.363       .  S
O529        H549   0.990       .  S
O529        H554   0.990       .  S
O530        H550   0.990       .  S
Zr531       O532   2.433       .  S
Zr531       O533   2.435       .  S
Zr531       O537   2.369   1_554  S
Zr531       O536   2.353   1_554  S
Zr531       O541   2.361       .  S
Zr531       O539   2.371       .  S
O532        H548   0.990       .  S
O533        H547   0.990       .  S
O533        H557   0.990       .  S
Zr534       O537   2.387   1_554  S
Zr534       O539   2.404       .  S
Zr534       O540   2.399   1_554  S
Zr535       O536   2.388       .  S
Zr535       O538   2.395       .  S
Zr535       O541   2.398   1_556  S
O536        H544   0.965       .  S
O539        H543   0.966       .  S
O540        H545   0.966       .  S
C558        C612   1.487       .  S
C558        C559   1.410       .  A
C558        C563   1.409       .  A
C559        C560   1.397       .  A
C559        H564   1.084       .  S
C560       C1337   1.392       .  A
C561       C1336   1.392   1_455  A
C561        C562   1.401       .  A
C561        H565   1.085       .  S
C562        C624   1.479       .  S
C562       C1339   1.406   1_455  A
C563       C1338   1.406       .  A
C563        H566   1.083       .  S
C567        C600   1.475       .  S
C567        C568   1.403       .  A
C568        H573   1.084       .  S
C569        C570   1.396       .  A
C570        C571   1.405       .  A
C570        H574   1.084       .  S
C571        C585   1.482       .  S
C571        C572   1.405       .  A
C572        H575   1.084       .  S
C576        C636   1.497       .  S
C576        C577   1.411       .  A
C576        C581   1.411       .  A
C577        C578   1.398       .  A
C577        H582   1.084       .  S
C578       C1355   1.394       .  A
C579       C1354   1.394   1_455  A
C579        C580   1.398       .  A
C579        H583   1.085       .  S
C580        C645   1.473       .  S
C580       C1357   1.406   1_455  A
C581       C1356   1.406       .  A
C581        H584   1.082       .  S
C585        C586   1.408       .  A
C585        C590   1.404       .  A
C586        C587   1.412       .  A
C586        H591   1.084       .  S
C587        C588   1.417       .  A
C587        C594   1.442       .  S
C588        C589   1.414       .  A
C589        C590   1.388       .  A
C589        H592   1.083       .  S
C590        C593   1.447       .  S
C593        N595   1.157       .  T
C594        N596   1.157       .  T
C597        C598   1.412       .  A
C597        C602   1.429       .  A
C598        C599   1.409       .  A
C598        H603   1.084       .  S
C599        C600   1.408       .  A
C599        C606   1.442       .  S
C600        C601   1.391       .  A
C601        C602   1.391       .  A
C601        H604   1.086       .  S
C602        C605   1.445       .  S
C605        N607   1.157       .  T
C606        N608   1.157       .  T
C609        C610   1.410       .  A
C609        C614   1.427       .  A
C610        C611   1.411       .  A
C610        H615   1.084       .  S
C611        C612   1.414       .  A
C611        C618   1.443       .  S
C612        C613   1.395       .  A
C613        C614   1.391       .  A
C613        H616   1.086       .  S
C614        C617   1.446       .  S
C617        N619   1.157       .  T
C618        N620   1.157       .  T
C621        C622   1.412       .  A
C621        C626   1.418       .  A
C622        C623   1.389       .  A
C622        H627   1.084       .  S
C623        C624   1.407       .  A
C623        C630   1.447       .  S
C624        C625   1.405       .  A
C625        C626   1.408       .  A
C625        H628   1.085       .  S
C626        C629   1.442       .  S
C629        N631   1.157       .  T
C630        N632   1.157       .  T
C633        C634   1.407       .  A
C633        C638   1.420       .  A
C634        C635   1.410       .  A
C634        H639   1.084       .  S
C635        C636   1.419       .  A
C635        C642   1.443       .  S
C636        C637   1.402       .  A
C637        C638   1.392       .  A
C637        H640   1.085       .  S
C638        C641   1.446       .  S
C641        N643   1.157       .  T
C642        N644   1.157       .  T
C645        C646   1.403       .  A
C645        C650   1.404       .  A
C646        C647   1.406       .  A
C646        H651   1.085       .  S
C647        C648   1.417       .  A
C647        C654   1.443       .  S
C648        C649   1.410       .  A
C649        C650   1.393       .  A
C649        H652   1.085       .  S
C650        C653   1.446       .  S
C653        N655   1.157       .  T
C654        N656   1.157       .  T
C657        C658   1.399       .  A
C657        C662   1.409       .  A
C658        C659   1.405       .  A
C658        H663   1.085       .  S
C659        C660   1.421       .  A
C659        C666   1.444       .  S
C660        C661   1.406       .  A
C661        C662   1.399       .  A
C661        H664   1.084       .  S
C662        C665   1.445       .  S
C665        N667   1.157   1_554  T
C666        N668   1.157       .  T
C669        C670   1.410       .  A
C669        C674   1.421       .  A
C670        C671   1.409       .  A
C670        H675   1.084       .  S
C671        C672   1.413       .  A
C671        C678   1.443       .  S
C672        C673   1.400       .  A
C673        C674   1.394       .  A
C673        H676   1.086       .  S
C674        C677   1.445       .  S
C677        N679   1.157       .  T
C678        N680   1.157       .  T
C681       C1458   1.410   1_455  A
C681        C686   1.415       .  A
C682       C1457   1.410       .  A
C682        C683   1.390       .  A
C682        H687   1.082       .  S
C683       C1460   1.403       .  A
C683        C690   1.446       .  S
C684       C1256   1.473       .  S
C684       C1459   1.403   1_455  A
C684        C685   1.405       .  A
C685        C686   1.409       .  A
C685        H688   1.084       .  S
C686        C689   1.443       .  S
C689        N691   1.157       .  T
C690        N692   1.157       .  T
C693       C1470   1.399       .  A
C693        C698   1.415       .  A
C694       C1469   1.399   1_455  A
C694        C695   1.392       .  A
C694        H699   1.085       .  S
C695       C1472   1.421   1_455  A
C695        C702   1.446       .  S
C696       C1471   1.421       .  A
C696        C697   1.408       .  A
C697        C698   1.409       .  A
C697        H700   1.084       .  S
C698        C701   1.443       .  S
C701        N703   1.157       .  T
C702        N704   1.157       .  T
C705       C1482   1.408   1_455  A
C705        C710   1.411       .  A
C706       C1481   1.408       .  A
C706        C707   1.393       .  A
C706        H711   1.085       .  S
C707       C1484   1.404       .  A
C707        C714   1.446       .  S
C708       C1229   1.474   1_455  S
C708       C1483   1.404   1_455  A
C708        C709   1.407       .  A
C709        C710   1.408       .  A
C709        H712   1.084       .  S
C710        C713   1.442       .  S
C713        N715   1.157       .  T
C714        N716   1.157       .  T
C717       C1494   1.399       .  A
C717        C722   1.412       .  A
C718       C1493   1.399   1_455  A
C718        C719   1.395       .  A
C718        H723   1.086       .  S
C719       C1496   1.422   1_455  A
C719        C726   1.446       .  S
C720       C1495   1.422       .  A
C720        C721   1.409       .  A
C721        C722   1.405       .  A
C721        H724   1.084       .  S
C722        C725   1.443       .  S
C725        N727   1.157       .  T
C726        N728   1.157       .  T
C729        C730   1.394       .  A
C730        C731   1.389       .  A
C730        H735   1.086       .  S
C731        C738   1.447       .  S
C732        C733   1.410       .  A
C733        C734   1.411       .  A
C733        H736   1.084       .  S
C734        C737   1.443       .  S
C737        N739   1.157       .  T
C738        N740   1.157       .  T
C741        C746   1.410       .  A
C742        C743   1.392       .  A
C742        H747   1.086       .  S
C743        C750   1.441       .  S
C744        C745   1.410       .  A
C745        C746   1.409       .  A
C745        H748   1.084       .  S
C746        C749   1.442       .  S
C749        N751   1.157       .  T
C750        N752   1.156       .  T
C753        C758   1.416       .  A
C754        C755   1.403       .  A
C754        H759   1.084       .  S
C755        C756   1.405       .  A
C755        C762   1.444       .  S
C757        C758   1.401       .  A
C757        H760   1.086       .  S
C758        C761   1.444       .  S
C761        N763   1.157       .  T
C762        N764   1.157       .  T
C765        C766   1.405       .  A
C765        C770   1.409       .  A
C766        C767   1.406       .  A
C766        H771   1.085       .  S
C767        C768   1.418       .  A
C767        C774   1.443       .  S
C768        C769   1.409       .  A
C769        C770   1.396       .  A
C773        N775   1.157       .  T
C774        N776   1.157       .  T
O777       Zr789   2.427       .  S
O777       C1167   1.287       .  A
O778       Zr815   2.438       .  S
O778        C779   1.289       .  A
C779       O1165   1.287   1_545  A
C779       C1156   1.494       .  S
O780       Zr792   2.422       .  S
O781       Zr816   2.445       .  S
O781        C782   1.290       .  A
C782       C1069   1.489       .  S
O783       Zr792   2.424       .  S
O783       C1173   1.285       .  A
O784       Zr815   2.458       .  S
O784        C785   1.294       .  A
C785       O1171   1.285   1_545  A
C785       C1132   1.493       .  S
O786       Zr789   2.416       .  S
O787       Zr816   2.456       .  S
O787        C788   1.292       .  A
C788       C1093   1.482       .  S
Zr789       O790   2.434       .  S
Zr789       O791   2.434       .  S
Zr789       O795   2.363       .  S
Zr789       O796   2.365       .  S
Zr789      O1209   2.359       .  S
O790        H833   0.990       .  S
O791        H832   0.990       .  S
O791        H836   0.990       .  S
Zr792       O793   2.429       .  S
Zr792       O794   2.435       .  S
Zr792       O796   2.352       .  S
Zr792       O795   2.364       .  S
Zr792      O1208   2.365       .  S
O793        H834   0.990       .  S
O793        H837   0.990       .  S
O794        H827   0.990       .  S
O795      Zr1203   2.380       .  S
O796        H823   0.964       .  S
O797       Zr809   2.437       .  S
O797       C1187   1.286   1_545  A
O798       Zr816   2.438       .  S
O798        C799   1.289       .  A
C799       O1185   1.286       .  A
C799       C1144   1.471       .  S
O800       Zr812   2.409       .  S
O801       Zr815   2.456       .  S
O801        C802   1.292       .  A
C802       C1084   1.492       .  S
O803       Zr812   2.396       .  S
O803       C1193   1.278   1_545  A
O804       Zr816   2.471       .  S
O804        C805   1.295       .  A
C805       O1191   1.278       .  A
C805       C1120   1.499       .  S
O806       Zr809   2.422       .  S
O807       Zr815   2.445       .  S
O807        C808   1.291       .  A
C808       C1108   1.493       .  S
Zr809       O810   2.437       .  S
Zr809       O811   2.434       .  S
Zr809       O817   2.360       .  S
Zr809       O818   2.370       .  S
Zr809      O1207   2.369   1_545  S
O810        H830   0.990       .  S
O810        H835   0.990       .  S
O811        H831   0.990       .  S
Zr812       O813   2.433       .  S
Zr812       O814   2.435       .  S
Zr812       O818   2.357       .  S
Zr812       O817   2.361       .  S
Zr812      O1210   2.365   1_545  S
O813        H829   0.990       .  S
O814        H828   0.990       .  S
O814        H838   0.990       .  S
Zr815      O1183   2.380   1_545  S
Zr815       O820   2.390       .  S
Zr815       O821   2.401       .  S
Zr816      O1205   2.391       .  S
Zr816       O819   2.402       .  S
Zr816       O822   2.396       .  S
O817      Zr1204   2.391   1_545  S
O817        H825   0.965       .  S
O819      Zr1197   2.369       .  S
O820      Zr1180   2.365   1_545  S
O820        H824   0.966       .  S
O821      Zr1177   2.359   1_545  S
O821        H826   0.966       .  S
O822      Zr1200   2.365       .  S
C839       C1105   1.483       .  S
C839        C840   1.406       .  A
C839        C844   1.406       .  A
C840        C841   1.404       .  A
C840        H845   1.084       .  S
C841        C842   1.400       .  A
C842        C843   1.398       .  A
C842        H846   1.084       .  S
C843        C948   1.468       .  S
C843        C844   1.399       .  A
C844        H847   1.084       .  S
C848       C1141   1.496       .  S
C848        C849   1.410       .  A
C848        C853   1.407       .  A
C849        C850   1.407       .  A
C849        H854   1.083       .  S
C850       C1153   1.485       .  S
C850        C851   1.404       .  A
C851        C852   1.396       .  A
C851        H855   1.084       .  S
C852        C877   1.470       .  S
C852        C853   1.400       .  A
C853        H856   1.084       .  S
C857       C1117   1.483   1_545  S
C857        C858   1.405       .  A
C857        C862   1.404       .  A
C858        C859   1.407       .  A
C858        H863   1.084       .  S
C859       C1129   1.475       .  S
C859        C860   1.404       .  A
C860        C861   1.400       .  A
C860        H864   1.084       .  S
C861        C957   1.469       .  S
C861        C862   1.396       .  A
C862        H865   1.085   1_545  S
C866       C1081   1.490       .  S
C866        C867   1.408       .  A
C866        C871   1.408       .  A
C867        C868   1.405   1_655  A
C867        H872   1.083   1_655  S
C868        C869   1.400       .  A
C869        C870   1.395   1_455  A
C869        H873   1.084       .  S
C870        C966   1.468       .  S
C870        C871   1.398       .  A
C871        H874   1.084       .  S
C875       C1060   1.489       .  S
C875        C876   1.402       .  A
C875       C1268   1.407       .  A
C876       C1265   1.396       .  A
C876        H881   1.085       .  S
C877       C1264   1.396   1_545  A
C877        C878   1.398       .  A
C878        C879   1.410       .  A
C878        H882   1.083       .  S
C879       C1048   1.496       .  S
C879        C880   1.414       .  A
C880       C1263   1.407   1_545  A
C880        H883   1.083       .  S
O884       Zr896   2.409       .  S
O884        C886   1.281       .  A
O885       Zr922   2.464   1_556  S
O885        C886   1.295       .  A
C886        C985   1.500       .  S
O887       Zr899   2.413       .  S
O887        C889   1.284       .  A
O888       Zr923   2.451   1_554  S
O888        C889   1.291       .  A
C889       C1009   1.495       .  S
O890       Zr899   2.422       .  S
O890        C892   1.284       .  A
O891       Zr922   2.451       .  S
O891        C892   1.292       .  A
C892       C1057   1.495       .  S
O893       Zr896   2.427       .  S
O893        C895   1.287       .  A
O894       Zr923   2.439       .  S
O894        C895   1.289       .  A
C895       C1036   1.490       .  S
Zr896       O897   2.432       .  S
Zr896       O898   2.435       .  S
Zr896       O902   2.365   1_556  S
Zr896       O903   2.350   1_556  S
Zr896       O926   2.363       .  S
Zr896       O928   2.370       .  S
O897        H940   0.990       .  S
O898        H939   0.990       .  S
O898        H943   0.990       .  S
Zr899       O900   2.438       .  S
Zr899       O901   2.434       .  S
Zr899       O903   2.363       .  S
Zr899       O902   2.358       .  S
Zr899       O927   2.363       .  S
Zr899       O929   2.371       .  S
O900        H941   0.990       .  S
O900        H944   0.990       .  S
O901        H934   0.990       .  S
O902       Zr922   2.386       .  S
O903       Zr923   2.391   1_554  S
O903        H930   0.965       .  S
O904       Zr916   2.399       .  S
O904        C906   1.281       .  A
O905       Zr923   2.466       .  S
O905        C906   1.293       .  A
C906        C976   1.500       .  S
O907       Zr919   2.406       .  S
O907        C909   1.280       .  A
O908       Zr922   2.465       .  S
O908        C909   1.295       .  A
C909        C997   1.499       .  S
O910       Zr919   2.433       .  S
O910        C912   1.286       .  A
O911       Zr923   2.440   1_554  S
O911        C912   1.289       .  A
C912       C1045   1.472       .  S
O913       Zr916   2.407       .  S
O913        C915   1.281       .  A
O914       Zr922   2.459   1_556  S
O914        C915   1.293       .  A
C915       C1021   1.492       .  S
Zr916       O917   2.437       .  S
Zr916       O918   2.434       .  S
Zr916       O924   2.361       .  S
Zr916       O925   2.359       .  S
Zr916       O928   2.354       .  S
Zr916       O926   2.363       .  S
O917        H937   0.990       .  S
O917        H942   0.990       .  S
O918        H938   0.990       .  S
Zr919       O920   2.433       .  S
Zr919       O921   2.435       .  S
Zr919       O925   2.369   1_554  S
Zr919       O924   2.353   1_554  S
Zr919       O929   2.361       .  S
Zr919       O927   2.371       .  S
O920        H936   0.990       .  S
O921        H935   0.990       .  S
O921        H945   0.990       .  S
Zr922       O925   2.387   1_554  S
Zr922       O927   2.404       .  S
Zr922       O928   2.399   1_554  S
Zr923       O924   2.388       .  S
Zr923       O926   2.395       .  S
Zr923       O929   2.398   1_556  S
O924        H932   0.965       .  S
O927        H931   0.966       .  S
O928        H933   0.966       .  S
C946       C1000   1.487       .  S
C946        C947   1.410       .  A
C946        C951   1.409       .  A
C947        C948   1.397       .  A
C947        H952   1.084       .  S
C949        C950   1.401       .  A
C949        H953   1.085       .  S
C950       C1012   1.479       .  S
C951        H954   1.083       .  S
C955        C988   1.475       .  S
C955        C956   1.403       .  A
C955       C1348   1.406       .  A
C956       C1345   1.398       .  A
C956        H961   1.084       .  S
C957       C1344   1.398   1_545  A
C957        C958   1.396       .  A
C958        C959   1.405       .  A
C958        H962   1.084       .  S
C959        C973   1.482       .  S
C959        C960   1.405       .  A
C960       C1343   1.406   1_545  A
C960        H963   1.084       .  S
C964       C1024   1.497       .  S
C964        C965   1.411       .  A
C964        C969   1.411       .  A
C965        C966   1.398       .  A
C965        H970   1.084       .  S
C967        C968   1.398       .  A
C967        H971   1.085       .  S
C968       C1033   1.473       .  S
C969        H972   1.082       .  S
C973        C974   1.408       .  A
C973        C978   1.404       .  A
C974        C975   1.412       .  A
C974        H979   1.084       .  S
C975        C976   1.417       .  A
C975        C982   1.442       .  S
C976        C977   1.414       .  A
C977        C978   1.388       .  A
C977        H980   1.083       .  S
C978        C981   1.447       .  S
C981        N983   1.157       .  T
C982        N984   1.157       .  T
C985        C986   1.412       .  A
C985        C990   1.429       .  A
C986        C987   1.409       .  A
C986        H991   1.084       .  S
C987        C988   1.408       .  A
C987        C994   1.442       .  S
C988        C989   1.391       .  A
C989        C990   1.391       .  A
C989        H992   1.086       .  S
C990        C993   1.445       .  S
C993        N995   1.157       .  T
C994        N996   1.157       .  T
C997        C998   1.410       .  A
C997       C1002   1.427       .  A
C998        C999   1.411       .  A
C998       H1003   1.084       .  S
C999       C1000   1.414       .  A
C999       C1006   1.443       .  S
C1000      C1001   1.395       .  A
C1001      C1002   1.391       .  A
C1001      H1004   1.086       .  S
C1002      C1005   1.446       .  S
C1005      N1007   1.157       .  T
C1006      N1008   1.157       .  T
C1009      C1010   1.412       .  A
C1009      C1014   1.418       .  A
C1010      C1011   1.389       .  A
C1010      H1015   1.084       .  S
C1011      C1012   1.407       .  A
C1011      C1018   1.447       .  S
C1012      C1013   1.405       .  A
C1013      C1014   1.408       .  A
C1013      H1016   1.085       .  S
C1014      C1017   1.442       .  S
C1017      N1019   1.157       .  T
C1018      N1020   1.157       .  T
C1021      C1022   1.407       .  A
C1021      C1026   1.420       .  A
C1022      C1023   1.410       .  A
C1022      H1027   1.084       .  S
C1023      C1024   1.419       .  A
C1023      C1030   1.443       .  S
C1024      C1025   1.402       .  A
C1025      C1026   1.392       .  A
C1025      H1028   1.085       .  S
C1026      C1029   1.446       .  S
C1029      N1031   1.157       .  T
C1030      N1032   1.157       .  T
C1033      C1034   1.403       .  A
C1033      C1038   1.404       .  A
C1034      C1035   1.406       .  A
C1034      H1039   1.085       .  S
C1035      C1036   1.417       .  A
C1035      C1042   1.443       .  S
C1036      C1037   1.410       .  A
C1037      C1038   1.393       .  A
C1037      H1040   1.085       .  S
C1038      C1041   1.446       .  S
C1041      N1043   1.157       .  T
C1042      N1044   1.157       .  T
C1045      C1046   1.399       .  A
C1045      C1050   1.409       .  A
C1046      C1047   1.405       .  A
C1046      H1051   1.085       .  S
C1047      C1048   1.421       .  A
C1047      C1054   1.444       .  S
C1048      C1049   1.406       .  A
C1049      C1050   1.399       .  A
C1049      H1052   1.084       .  S
C1050      C1053   1.445       .  S
C1053      N1055   1.157   1_554  T
C1054      N1056   1.157       .  T
C1057      C1058   1.410       .  A
C1057      C1062   1.421       .  A
C1058      C1059   1.409       .  A
C1058      H1063   1.084       .  S
C1059      C1060   1.413       .  A
C1059      C1066   1.443       .  S
C1060      C1061   1.400       .  A
C1061      C1062   1.394       .  A
C1061      H1064   1.086       .  S
C1062      C1065   1.445       .  S
C1065      N1067   1.157       .  T
C1066      N1068   1.157       .  T
C1069      C1074   1.415       .  A
C1070      C1071   1.390       .  A
C1070      H1075   1.082       .  S
C1071      C1078   1.446       .  S
C1072      C1073   1.405       .  A
C1073      C1074   1.409       .  A
C1073      H1076   1.084       .  S
C1074      C1077   1.443       .  S
C1077      N1079   1.157       .  T
C1078      N1080   1.157       .  T
C1081      C1086   1.415       .  A
C1082      C1083   1.392       .  A
C1082      H1087   1.085       .  S
C1083      C1090   1.446       .  S
C1084      C1085   1.408       .  A
C1085      C1086   1.409       .  A
C1085      H1088   1.084       .  S
C1086      C1089   1.443       .  S
C1089      N1091   1.157       .  T
C1090      N1092   1.157       .  T
C1093      C1098   1.411       .  A
C1094      C1095   1.393       .  A
C1094      H1099   1.085       .  S
C1095      C1102   1.446       .  S
C1096      C1097   1.407       .  A
C1097      C1098   1.408       .  A
C1097      H1100   1.084       .  S
C1098      C1101   1.442       .  S
C1101      N1103   1.157       .  T
C1102      N1104   1.157       .  T
C1105      C1110   1.412       .  A
C1106      C1107   1.395       .  A
C1106      H1111   1.086       .  S
C1107      C1114   1.446       .  S
C1108      C1109   1.409       .  A
C1109      C1110   1.405       .  A
C1109      H1112   1.084       .  S
C1110      C1113   1.443       .  S
C1113      N1115   1.157       .  T
C1114      N1116   1.157       .  T
C1117      C1118   1.394   1_565  A
C1117      C1510   1.412       .  A
C1118      C1119   1.389       .  A
C1118      H1123   1.086       .  S
C1119      C1508   1.428   1_545  A
C1119      C1126   1.447       .  S
C1120      C1507   1.428       .  A
C1120      C1121   1.410       .  A
C1121      C1122   1.411       .  A
C1121      H1124   1.084       .  S
C1122      C1505   1.412       .  A
C1122      C1125   1.443       .  S
C1125      N1127   1.157       .  T
C1126      N1128   1.157       .  T
C1129      C1518   1.391   1_545  A
C1129      C1134   1.410       .  A
C1130      C1517   1.391       .  A
C1130      C1131   1.392       .  A
C1130      H1135   1.086       .  S
C1131      C1520   1.422       .  A
C1131      C1138   1.441       .  S
C1132      C1519   1.422   1_545  A
C1132      C1133   1.410       .  A
C1133      C1134   1.409       .  A
C1133      H1136   1.084       .  S
C1134      C1137   1.442       .  S
C1137      N1139   1.157       .  T
C1138      N1140   1.156       .  T
C1141      C1530   1.412   1_545  A
C1141      C1146   1.416       .  A
C1142      C1529   1.412       .  A
C1142      C1143   1.403       .  A
C1142      H1147   1.084       .  S
C1143      C1144   1.405       .  A
C1143      C1150   1.444       .  S
C1144      C1533   1.401       .  A
C1145      C1532   1.401   1_545  A
C1145      C1146   1.401       .  A
C1145      H1148   1.086       .  S
C1146      C1149   1.444       .  S
C1149      N1151   1.157       .  T
C1150      N1152   1.157       .  T
C1153      C1154   1.405       .  A
C1153      C1158   1.409       .  A
C1154      C1155   1.406       .  A
C1154      H1159   1.085       .  S
C1155      C1156   1.418       .  A
C1155      C1162   1.443       .  S
C1156      C1157   1.409       .  A
C1157      C1158   1.396       .  A
C1157      H1548   1.085   1_545  S
C1158      C1549   1.446   1_545  S
H1160      C1545   1.085       .  S
C1161      C1546   1.446       .  S
C1161      N1163   1.157       .  T
C1162      N1164   1.157       .  T
O1165     Zr1177   2.427       .  S
O1166     Zr1203   2.438       .  S
O1166      C1167   1.289       .  A
C1167      C1544   1.494       .  S
O1168     Zr1180   2.422       .  S
O1169     Zr1204   2.445       .  S
O1169      C1170   1.290       .  A
C1170      C1457   1.489       .  S
O1171     Zr1180   2.424       .  S
O1172     Zr1203   2.458       .  S
O1172      C1173   1.294       .  A
C1173      C1520   1.493       .  S
O1174     Zr1177   2.416       .  S
O1175     Zr1204   2.456       .  S
O1175      C1176   1.292       .  A
C1176      C1481   1.482       .  S
Zr1177     O1178   2.434       .  S
Zr1177     O1179   2.434       .  S
Zr1177     O1183   2.363       .  S
Zr1177     O1184   2.365       .  S
O1178      H1221   0.990       .  S
O1179      H1220   0.990       .  S
O1179      H1224   0.990       .  S
Zr1180     O1181   2.429       .  S
Zr1180     O1182   2.435       .  S
Zr1180     O1184   2.352       .  S
Zr1180     O1183   2.364       .  S
O1181      H1222   0.990       .  S
O1181      H1225   0.990       .  S
O1182      H1215   0.990       .  S
O1184      H1211   0.964       .  S
O1185     Zr1197   2.437       .  S
O1186     Zr1204   2.438       .  S
O1186      C1187   1.289       .  A
C1187      C1532   1.471       .  S
O1188     Zr1200   2.409       .  S
O1189     Zr1203   2.456       .  S
O1189      C1190   1.292       .  A
C1190      C1472   1.492       .  S
O1191     Zr1200   2.396       .  S
O1192     Zr1204   2.471       .  S
O1192      C1193   1.295       .  A
C1193      C1508   1.499       .  S
O1194     Zr1197   2.422       .  S
O1195     Zr1203   2.445       .  S
O1195      C1196   1.291       .  A
C1196      C1496   1.493       .  S
Zr1197     O1198   2.437       .  S
Zr1197     O1199   2.434       .  S
Zr1197     O1205   2.360       .  S
Zr1197     O1206   2.370       .  S
O1198      H1218   0.990       .  S
O1198      H1223   0.990       .  S
O1199      H1219   0.990       .  S
Zr1200     O1201   2.433       .  S
Zr1200     O1202   2.435       .  S
Zr1200     O1206   2.357       .  S
Zr1200     O1205   2.361       .  S
O1201      H1217   0.990       .  S
O1202      H1216   0.990       .  S
O1202      H1226   0.990       .  S
Zr1203     O1208   2.390       .  S
Zr1203     O1209   2.401       .  S
Zr1204     O1207   2.402       .  S
Zr1204     O1210   2.396       .  S
O1205      H1213   0.965       .  S
O1208      H1212   0.966       .  S
O1209      H1214   0.966       .  S
C1227      C1493   1.483       .  S
C1227      C1228   1.406       .  A
C1227      C1232   1.406       .  A
C1228      C1229   1.404       .  A
C1228      H1233   1.084       .  S
C1229      C1230   1.400       .  A
C1230      C1231   1.398       .  A
C1230      H1234   1.084       .  S
C1231      C1336   1.468       .  S
C1231      C1232   1.399       .  A
C1232      H1235   1.084       .  S
C1236      C1529   1.496       .  S
C1236      C1237   1.410       .  A
C1236      C1241   1.407       .  A
C1237      C1238   1.407       .  A
C1237      H1242   1.083       .  S
C1238      C1541   1.485       .  S
C1238      C1239   1.404       .  A
C1239      C1240   1.396       .  A
C1239      H1243   1.084       .  S
C1240      C1265   1.470       .  S
C1240      C1241   1.400       .  A
C1241      H1244   1.084       .  S
C1245      C1505   1.483       .  S
C1245      C1246   1.405       .  A
C1245      C1250   1.404       .  A
C1246      C1247   1.407       .  A
C1246      H1251   1.084       .  S
C1247      C1517   1.475       .  S
C1247      C1248   1.404       .  A
C1248      C1249   1.400       .  A
C1248      H1252   1.084       .  S
C1249      C1345   1.469       .  S
C1249      C1250   1.396       .  A
C1250      H1253   1.085       .  S
C1254      C1469   1.490       .  S
C1254      C1255   1.408       .  A
C1254      C1259   1.408       .  A
C1255      C1256   1.405   1_655  A
C1255      H1260   1.083   1_655  S
C1256      C1257   1.400       .  A
C1257      C1258   1.395   1_455  A
C1257      H1261   1.084       .  S
C1258      C1354   1.468       .  S
C1258      C1259   1.398       .  A
C1259      H1262   1.084       .  S
C1263      C1448   1.489       .  S
C1263      C1264   1.402       .  A
C1264      H1269   1.085       .  S
C1265      C1266   1.398       .  A
C1266      C1267   1.410       .  A
C1266      H1270   1.083       .  S
C1267      C1436   1.496       .  S
C1267      C1268   1.414       .  A
C1268      H1271   1.083       .  S
O1272     Zr1284   2.409       .  S
O1272      C1274   1.281       .  A
O1273     Zr1310   2.464   1_556  S
O1273      C1274   1.295       .  A
C1274      C1373   1.500       .  S
O1275     Zr1287   2.413       .  S
O1275      C1277   1.284       .  A
O1276     Zr1311   2.451   1_554  S
O1276      C1277   1.291       .  A
C1277      C1397   1.495       .  S
O1278     Zr1287   2.422       .  S
O1278      C1280   1.284       .  A
O1279     Zr1310   2.451       .  S
O1279      C1280   1.292       .  A
C1280      C1445   1.495       .  S
O1281     Zr1284   2.427       .  S
O1281      C1283   1.287       .  A
O1282     Zr1311   2.439       .  S
O1282      C1283   1.289       .  A
C1283      C1424   1.490       .  S
Zr1284     O1285   2.432       .  S
Zr1284     O1286   2.435       .  S
Zr1284     O1290   2.365   1_556  S
Zr1284     O1291   2.350   1_556  S
Zr1284     O1314   2.363       .  S
Zr1284     O1316   2.370       .  S
O1285      H1328   0.990       .  S
O1286      H1327   0.990       .  S
O1286      H1331   0.990       .  S
Zr1287     O1288   2.438       .  S
Zr1287     O1289   2.434       .  S
Zr1287     O1291   2.363       .  S
Zr1287     O1290   2.358       .  S
Zr1287     O1315   2.363       .  S
Zr1287     O1317   2.371       .  S
O1288      H1329   0.990       .  S
O1288      H1332   0.990       .  S
O1289      H1322   0.990       .  S
O1290     Zr1310   2.386       .  S
O1291     Zr1311   2.391   1_554  S
O1291      H1318   0.965       .  S
O1292     Zr1304   2.399       .  S
O1292      C1294   1.281       .  A
O1293     Zr1311   2.466       .  S
O1293      C1294   1.293       .  A
C1294      C1364   1.500       .  S
O1295     Zr1307   2.406       .  S
O1295      C1297   1.280       .  A
O1296     Zr1310   2.465       .  S
O1296      C1297   1.295       .  A
C1297      C1385   1.499       .  S
O1298     Zr1307   2.433       .  S
O1298      C1300   1.286       .  A
O1299     Zr1311   2.440   1_554  S
O1299      C1300   1.289       .  A
C1300      C1433   1.472       .  S
O1301     Zr1304   2.407       .  S
O1301      C1303   1.281       .  A
O1302     Zr1310   2.459   1_556  S
O1302      C1303   1.293       .  A
C1303      C1409   1.492       .  S
Zr1304     O1305   2.437       .  S
Zr1304     O1306   2.434       .  S
Zr1304     O1312   2.361       .  S
Zr1304     O1313   2.359       .  S
Zr1304     O1316   2.354       .  S
Zr1304     O1314   2.363       .  S
O1305      H1325   0.990       .  S
O1305      H1330   0.990       .  S
O1306      H1326   0.990       .  S
Zr1307     O1308   2.433       .  S
Zr1307     O1309   2.435       .  S
Zr1307     O1313   2.369   1_554  S
Zr1307     O1312   2.353   1_554  S
Zr1307     O1317   2.361       .  S
Zr1307     O1315   2.371       .  S
O1308      H1324   0.990       .  S
O1309      H1323   0.990       .  S
O1309      H1333   0.990       .  S
Zr1310     O1313   2.387   1_554  S
Zr1310     O1315   2.404       .  S
Zr1310     O1316   2.399   1_554  S
Zr1311     O1312   2.388       .  S
Zr1311     O1314   2.395       .  S
Zr1311     O1317   2.398   1_556  S
O1312      H1320   0.965       .  S
O1315      H1319   0.966       .  S
O1316      H1321   0.966       .  S
C1334      C1388   1.487       .  S
C1334      C1335   1.410       .  A
C1334      C1339   1.409       .  A
C1335      C1336   1.397       .  A
C1335      H1340   1.084       .  S
C1337      C1338   1.401       .  A
C1337      H1341   1.085       .  S
C1338      C1400   1.479       .  S
C1339      H1342   1.083       .  S
C1343      C1376   1.475       .  S
C1343      C1344   1.403       .  A
C1344      H1349   1.084       .  S
C1345      C1346   1.396       .  A
C1346      C1347   1.405       .  A
C1346      H1350   1.084       .  S
C1347      C1361   1.482       .  S
C1347      C1348   1.405       .  A
C1348      H1351   1.084       .  S
C1352      C1412   1.497       .  S
C1352      C1353   1.411       .  A
C1352      C1357   1.411       .  A
C1353      C1354   1.398       .  A
C1353      H1358   1.084       .  S
C1355      C1356   1.398       .  A
C1355      H1359   1.085       .  S
C1356      C1421   1.473       .  S
C1357      H1360   1.082       .  S
C1361      C1362   1.408       .  A
C1361      C1366   1.404       .  A
C1362      C1363   1.412       .  A
C1362      H1367   1.084       .  S
C1363      C1364   1.417       .  A
C1363      C1370   1.442       .  S
C1364      C1365   1.414       .  A
C1365      C1366   1.388       .  A
C1365      H1368   1.083       .  S
C1366      C1369   1.447       .  S
C1369      N1371   1.157       .  T
C1370      N1372   1.157       .  T
C1373      C1374   1.412       .  A
C1373      C1378   1.429       .  A
C1374      C1375   1.409       .  A
C1374      H1379   1.084       .  S
C1375      C1376   1.408       .  A
C1375      C1382   1.442       .  S
C1376      C1377   1.391       .  A
C1377      C1378   1.391       .  A
C1377      H1380   1.086       .  S
C1378      C1381   1.445       .  S
C1381      N1383   1.157       .  T
C1382      N1384   1.157       .  T
C1385      C1386   1.410       .  A
C1385      C1390   1.427       .  A
C1386      C1387   1.411       .  A
C1386      H1391   1.084       .  S
C1387      C1388   1.414       .  A
C1387      C1394   1.443       .  S
C1388      C1389   1.395       .  A
C1389      C1390   1.391       .  A
C1389      H1392   1.086       .  S
C1390      C1393   1.446       .  S
C1393      N1395   1.157       .  T
C1394      N1396   1.157       .  T
C1397      C1398   1.412       .  A
C1397      C1402   1.418       .  A
C1398      C1399   1.389       .  A
C1398      H1403   1.084       .  S
C1399      C1400   1.407       .  A
C1399      C1406   1.447       .  S
C1400      C1401   1.405       .  A
C1401      C1402   1.408       .  A
C1401      H1404   1.085       .  S
C1402      C1405   1.442       .  S
C1405      N1407   1.157       .  T
C1406      N1408   1.157       .  T
C1409      C1410   1.407       .  A
C1409      C1414   1.420       .  A
C1410      C1411   1.410       .  A
C1410      H1415   1.084       .  S
C1411      C1412   1.419       .  A
C1411      C1418   1.443       .  S
C1412      C1413   1.402       .  A
C1413      C1414   1.392       .  A
C1413      H1416   1.085       .  S
C1414      C1417   1.446       .  S
C1417      N1419   1.157       .  T
C1418      N1420   1.157       .  T
C1421      C1422   1.403       .  A
C1421      C1426   1.404       .  A
C1422      C1423   1.406       .  A
C1422      H1427   1.085       .  S
C1423      C1424   1.417       .  A
C1423      C1430   1.443       .  S
C1424      C1425   1.410       .  A
C1425      C1426   1.393       .  A
C1425      H1428   1.085       .  S
C1426      C1429   1.446       .  S
C1429      N1431   1.157       .  T
C1430      N1432   1.157       .  T
C1433      C1434   1.399       .  A
C1433      C1438   1.409       .  A
C1434      C1435   1.405       .  A
C1434      H1439   1.085       .  S
C1435      C1436   1.421       .  A
C1435      C1442   1.444       .  S
C1436      C1437   1.406       .  A
C1437      C1438   1.399       .  A
C1437      H1440   1.084       .  S
C1438      C1441   1.445       .  S
C1441      N1443   1.157   1_554  T
C1442      N1444   1.157       .  T
C1445      C1446   1.410       .  A
C1445      C1450   1.421       .  A
C1446      C1447   1.409       .  A
C1446      H1451   1.084       .  S
C1447      C1448   1.413       .  A
C1447      C1454   1.443       .  S
C1448      C1449   1.400       .  A
C1449      C1450   1.394       .  A
C1449      H1452   1.086       .  S
C1450      C1453   1.445       .  S
C1453      N1455   1.157       .  T
C1454      N1456   1.157       .  T
C1457      C1462   1.415       .  A
C1458      C1459   1.390       .  A
C1458      H1463   1.082       .  S
C1459      C1466   1.446       .  S
C1460      C1461   1.405       .  A
C1461      C1462   1.409       .  A
C1461      H1464   1.084       .  S
C1462      C1465   1.443       .  S
C1465      N1467   1.157       .  T
C1466      N1468   1.157       .  T
C1469      C1474   1.415       .  A
C1470      C1471   1.392       .  A
C1470      H1475   1.085       .  S
C1471      C1478   1.446       .  S
C1472      C1473   1.408       .  A
C1473      C1474   1.409       .  A
C1473      H1476   1.084       .  S
C1474      C1477   1.443       .  S
C1477      N1479   1.157       .  T
C1478      N1480   1.157       .  T
C1481      C1486   1.411       .  A
C1482      C1483   1.393       .  A
C1482      H1487   1.085       .  S
C1483      C1490   1.446       .  S
C1484      C1485   1.407       .  A
C1485      C1486   1.408       .  A
C1485      H1488   1.084       .  S
C1486      C1489   1.442       .  S
C1489      N1491   1.157       .  T
C1490      N1492   1.157       .  T
C1493      C1498   1.412       .  A
C1494      C1495   1.395       .  A
C1494      H1499   1.086       .  S
C1495      C1502   1.446       .  S
C1496      C1497   1.409       .  A
C1497      C1498   1.405       .  A
C1497      H1500   1.084       .  S
C1498      C1501   1.443       .  S
C1501      N1503   1.157       .  T
C1502      N1504   1.157       .  T
C1505      C1506   1.394       .  A
C1506      C1507   1.389       .  A
C1506      H1511   1.086       .  S
C1507      C1514   1.447       .  S
C1508      C1509   1.410       .  A
C1509      C1510   1.411       .  A
C1509      H1512   1.084       .  S
C1510      C1513   1.443       .  S
C1513      N1515   1.157       .  T
C1514      N1516   1.157       .  T
C1517      C1522   1.410       .  A
C1518      C1519   1.392       .  A
C1518      H1523   1.086       .  S
C1519      C1526   1.441       .  S
C1520      C1521   1.410       .  A
C1521      C1522   1.409       .  A
C1521      H1524   1.084       .  S
C1522      C1525   1.442       .  S
C1525      N1527   1.157       .  T
C1526      N1528   1.156       .  T
C1529      C1534   1.416       .  A
C1530      C1531   1.403       .  A
C1530      H1535   1.084       .  S
C1531      C1532   1.405       .  A
C1531      C1538   1.444       .  S
C1533      C1534   1.401       .  A
C1533      H1536   1.086       .  S
C1534      C1537   1.444       .  S
C1537      N1539   1.157       .  T
C1538      N1540   1.157       .  T
C1541      C1542   1.405       .  A
C1541      C1546   1.409       .  A
C1542      C1543   1.406       .  A
C1542      H1547   1.085       .  S
C1543      C1544   1.418       .  A
C1543      C1550   1.443       .  S
C1544      C1545   1.409       .  A
C1545      C1546   1.396       .  A
C1549      N1551   1.157       .  T
C1550      N1552   1.157       .  T
