geometry optimzed in LAMMPS
_audit_creation_date              2020-11-30 
_audit_creation_method            'lammps2cif' 
_symmetry_space_group_name_H-M    'P1' 
_symmetry_Int_Tables_number       1 
_symmetry_cell_setting            triclinic 
loop_ 
_symmetry_equiv_pos_as_xyz 
  x,y,z 
_cell_length_a                    33.21327299 
_cell_length_b                    21.738365627659352 
_cell_length_c                    21.141623249671962 
_cell_angle_alpha                 89.72371384817997 
_cell_angle_beta                  89.83631095930338 
_cell_angle_gamma                 91.12356546804236 
loop_ 
_atom_site_label 
_atom_site_type_symbol 
_atom_site_fract_x 
_atom_site_fract_y 
_atom_site_fract_z 
_atom_site_charge 
C1          C  0.03377011  0.30974368  0.15787473     0.87500
C2          C  0.00639794  0.31042468  0.10129104    -0.52700
C3          C  0.98350570  0.36150324  0.09504635     0.10400
C4          C  0.98967868  0.40819987  0.15065173     0.21400
C5          C  0.05822510  0.37033611  0.15391814    -0.53500
C6          C  0.03588098  0.42244180  0.15092401     0.10500
C7          C  0.00602491  0.31735406  0.21450898    -0.53000
C8          C  0.98269197  0.36863407  0.21192930     0.11100
H9          H  0.00750365  0.27421289  0.06601770     0.15600
H10         H  0.97095570  0.44984632  0.14760838     0.01300
H11         H  0.09091130  0.37194622  0.15526198     0.15900
H12         H  0.00584080  0.28589199  0.25464421     0.15700
C13         C  0.55299692  0.20701394  0.66131997     0.87500
C14         C  0.58289332  0.20653911  0.60641324    -0.52700
C15         C  0.60365832  0.15297464  0.60003915     0.10400
C16         C  0.59431408  0.10569447  0.65387039     0.21400
C17         C  0.52717210  0.14789131  0.65245208    -0.53500
C18         C  0.54844265  0.09481310  0.64903992     0.10500
C19         C  0.57811478  0.19417327  0.72013810    -0.53000
C20         C  0.59984149  0.14130748  0.71706598     0.11100
H21         H  0.58342510  0.24276535  0.57077224     0.15600
H22         H  0.61190370  0.06286130  0.65112006     0.01300
H23         H  0.49450182  0.14766138  0.65067804     0.15900
H24         H  0.57739793  0.22299006  0.76199324     0.15700
O25         O  0.62656339  0.18157446  0.49748607    -0.77500
C26         C  0.71512101  0.20922406  0.33446433     0.83600
O27         O  0.53829130  0.19416275  0.35499245    -0.78600
O28         O  0.63176645  0.09760148  0.20735219    -0.80100
O29         O  0.69143118  0.01951361  0.41288420    -0.79900
O30         O  0.62104000  0.08131901  0.51830669    -0.76900
Zn31       Zn  0.63492352  0.19106116  0.40320172     1.55700
O32         O  0.69352625  0.02513544  0.30754326    -0.79900
Cd33       Cd  0.63201339  0.04870514  0.42629643     1.59700
Cd34       Cd  0.56595316  0.11062836  0.33103407     1.59600
O35         O  0.59055349  0.97942157  0.40456573    -0.79900
O36         O  0.62247283  0.11451279  0.36345989    -1.90400
Cd37       Cd  0.66063829  0.10254757  0.29307033     1.59900
O38         O  0.53813240  0.02670693  0.36044241    -0.79900
O39         O  0.70513307  0.17006737  0.29254870    -0.78500
C40         C  0.55535021  0.24663255  0.36556766     0.84000
C41         C  0.61937276  0.13732217  0.53607107     0.83700
O42         O  0.69228457  0.22106599  0.38141519    -0.77500
C43         C  0.70912888  0.01017367  0.36006471     0.84500
O44         O  0.59309296  0.25174201  0.37659484    -0.77600
C45         C  0.55492175  0.97813075  0.38156993     0.84600
C46         C  0.59488670  0.09961554  0.19152827     0.84900
O47         O  0.56657328  0.10557121  0.23189637    -0.80000
C48         C  0.62536202  0.09801689  0.88737846     0.87500
C49         C  0.65086338  0.04219821  0.87064272    -0.52700
C50         C  0.67370817  0.05010267  0.81715357     0.10400
C51         C  0.66623472  0.11175087  0.78309108     0.21400
C52         C  0.65571739  0.15236125  0.88846207    -0.53500
C53         C  0.67776971  0.15886839  0.83418589     0.10500
C54         C  0.59889536  0.10934153  0.82996761    -0.53000
C55         C  0.61999601  0.11703426  0.77482114     0.11100
H56         H  0.65593618  0.00513675  0.90422154     0.15600
H57         H  0.68336103  0.11784620  0.73819149     0.01300
H58         H  0.66285680  0.17779585  0.93125457     0.15900
H59         H  0.56645170  0.11431630  0.83305334     0.15700
O60         O  0.95664324  0.32010172  0.00141543    -0.77500
C61         C  0.86950891  0.25560864  0.84831670     0.83600
O62         O  0.04286354  0.28029902  0.85259617    -0.78600
O63         O  0.94529078  0.36497503  0.70417621    -0.80100
O64         O  0.88623621  0.46577252  0.89491174    -0.79900
O65         O  0.95887504  0.42217205  0.00746169    -0.78500
Zn66       Zn  0.94697223  0.29329249  0.91232227     1.55700
O67         O  0.87455336  0.42475729  0.79978095    -0.79900
Cd68       Cd  0.94571743  0.43749907  0.91099808     1.59700
Cd69       Cd  0.01311317  0.36285382  0.82599962     1.59600
O70         O  0.98704105  0.50275332  0.87955887    -0.79900
O71         O  0.95664191  0.36266419  0.86004768    -1.90400
Cd72       Cd  0.91727318  0.35825483  0.79053883     1.59900
O73         O  0.04039670  0.44760683  0.85053499    -0.79900
O74         O  0.88185866  0.27995798  0.79685931    -0.78500
C75         C  0.02591497  0.23048620  0.87306282     0.84000
C76         C  0.96338043  0.36934550  0.03269069     0.83700
O77         O  0.88976818  0.25966806  0.89937851    -0.77500
C78         C  0.86399730  0.45786050  0.84614876     0.84500
O79         O  0.98936198  0.22982356  0.89258172    -0.77600
C80         C  0.02403376  0.49913007  0.86333340     0.84600
C81         C  0.98211795  0.36650511  0.68743215     0.84900
O82         O  0.01103010  0.36467853  0.72701591    -0.80000
C83         C  0.95083620  0.38478825  0.38322898     0.87500
C84         C  0.92299834  0.43948794  0.37484465    -0.52700
C85         C  0.90169445  0.43842183  0.31963930     0.10400
C86         C  0.91286580  0.38452719  0.27594764     0.21400
C87         C  0.92339617  0.32777202  0.37345730    -0.53500
C88         C  0.90263488  0.32816072  0.31779863     0.10500
C89         C  0.97891463  0.38702804  0.32654056    -0.53000
C90         C  0.95960436  0.38625468  0.26956902     0.11100
H91         H  0.91550325  0.46960853  0.41386039     0.15600
H92         H  0.89699584  0.38449863  0.22975392     0.01300
H93         H  0.91683140  0.29469722  0.41099633     0.15900
H94         H  0.01144749  0.38439397  0.33091061     0.15700
C95         C  0.53047461  0.30449209  0.36722701     0.87500
C96         C  0.50482003  0.31485023  0.30878638    -0.52700
C97         C  0.48253390  0.36696046  0.31068257     0.10400
C98         C  0.48826517  0.40497908  0.37256956     0.21400
C99         C  0.55586307  0.36424720  0.37395294    -0.53500
C100        C  0.53417839  0.41699565  0.37654476     0.10500
C101        C  0.50104802  0.30575139  0.42263609    -0.53000
C102        C  0.47977260  0.35898747  0.42789932     0.11100
H103        H  0.50530364  0.28460380  0.26800997     0.15600
H104        H  0.47025375  0.44744479  0.37437009     0.01300
H105        H  0.58853326  0.36500022  0.37561683     0.15900
H106        H  0.50104284  0.27029221  0.45905617     0.15700
C107        C  0.04944744  0.05760139  0.86372862     0.87500
C108        C  0.07760446  0.05922572  0.91976848    -0.52700
C109        C  0.10016790  0.11203986  0.92581342     0.10400
C110        C  0.09328343  0.15895593  0.87058948     0.21400
C111        C  0.02490641  0.11661285  0.86893602    -0.53500
C112        C  0.04711298  0.17013163  0.87173559     0.10500
C113        C  0.07650712  0.06819429  0.80630468    -0.53000
C114        C  0.09979573  0.12084714  0.80886214     0.11100
H115        H  0.07690053  0.02281647  0.95523760     0.15600
H116        H  0.11190718  0.20182465  0.87339807     0.01300
H117        H  0.99221502  0.11621174  0.86847259     0.15900
H118        H  0.07636579  0.03753183  0.76580532     0.15700
O119        O  0.12816501  0.07453556  0.02061428    -0.77500
C120        C  0.21256066  0.02369742  0.18415589     0.83600
O121        O  0.03971670  0.03278250  0.17018734    -0.78600
O122        O  0.13570342  0.13598406  0.31762171    -0.80100
O123        O  0.19528770  0.22658863  0.11903696    -0.79900
O124        O  0.12128313  0.17592344  0.01313930    -0.78500
Zn125      Zn  0.13636439  0.05169646  0.11242157     1.55700
O126        O  0.20595645  0.19737388  0.21881393    -0.79900
Cd127      Cd  0.13559950  0.19499093  0.10800030     1.59700
Cd128      Cd  0.06903460  0.11748839  0.19625501     1.59600
O129        O  0.09567833  0.25844816  0.14072598    -0.79900
O130        O  0.12533870  0.12149525  0.16202743    -1.90400
Cd131      Cd  0.16404632  0.12745731  0.23213278     1.59900
O132        O  0.04217743  0.20032052  0.17033327    -0.79900
O133        O  0.20005178  0.05244380  0.23231463    -0.78500
C134        C  0.05698340  0.98416268  0.15040142     0.84000
C135        C  0.11941229  0.12248167  0.98856150     0.83700
O136        O  0.19308963  0.02206760  0.13211062    -0.77500
C137        C  0.21713056  0.22542933  0.16867869     0.84500
O138        O  0.09375308  0.98593801  0.13197514    -0.77600
C139        C  0.05886262  0.25277410  0.15784902     0.84600
C140        C  0.09903174  0.13116156  0.33460961     0.84900
O141        O  0.07044387  0.12147986  0.29540862    -0.80000
C142        C  0.13166953  0.15275109  0.63817501     0.87500
C143        C  0.15707151  0.21063930  0.65284948    -0.52700
C144        C  0.17788618  0.20702413  0.70848672     0.10400
C145        C  0.16933684  0.14702416  0.74558912     0.21400
C146        C  0.16151377  0.09980553  0.64237759    -0.53500
C147        C  0.18229790  0.09755100  0.69787802     0.10500
C148        C  0.10350559  0.14403289  0.69435412    -0.53000
C149        C  0.12272737  0.14094252  0.75125192     0.11100
H150        H  0.16332440  0.24612133  0.61755869     0.15600
H151        H  0.18506551  0.14430390  0.79180651     0.01300
H152        H  0.16965691  0.07244530  0.60151504     0.15900
H153        H  0.07107896  0.13801147  0.68945800     0.15700
O154        O  0.39165501  0.29221126  0.64394588    -0.77500
C155        C  0.46379080  0.37521377  0.49153409     0.83600
O156        O  0.54522584  0.31783943  0.67389348    -0.78600
O157        O  0.49183062  0.53284287  0.62159650    -0.80100
O158        O  0.38685619  0.48494212  0.72013107    -0.79900
O159        O  0.37931370  0.34047736  0.73463181    -0.78500
Zn160      Zn  0.44900470  0.32156001  0.62444751     1.55700
O161        O  0.39081082  0.49494016  0.61514187    -0.79900
Cd162      Cd  0.42216612  0.40957613  0.73418231     1.59700
Cd163      Cd  0.51694465  0.40169337  0.69659491     1.59600
O164        O  0.45079332  0.41417498  0.81996606    -0.79900
O165        O  0.46044764  0.39833758  0.66388434    -1.90400
Cd166      Cd  0.45002753  0.46393738  0.60083642     1.59900
O167        O  0.51607103  0.40674733  0.79574637    -0.79900
O168        O  0.46075456  0.43131880  0.50844731    -0.78500
C169        C  0.52821835  0.26529947  0.66339518     0.84000
C170        C  0.36905620  0.30307209  0.69133665     0.83700
O171        O  0.45779221  0.33125397  0.53082715    -0.77500
C172        C  0.37247827  0.50309133  0.66773185     0.84500
O173        O  0.49050444  0.26049167  0.65198555    -0.77600
C174        C  0.48761922  0.41201418  0.83599390     0.84600
C175        C  0.52747601  0.53398571  0.64450478     0.84900
O176        O  0.54418612  0.48558174  0.66628023    -0.80000
C177        C  0.45505023  0.40243091  0.13964544     0.87500
C178        C  0.42816625  0.34401738  0.13947755    -0.52700
C179        C  0.40613628  0.33546133  0.19352963     0.10400
C180        C  0.41479241  0.38484372  0.24398154     0.21400
C181        C  0.42611602  0.45448844  0.15510101    -0.53500
C182        C  0.40407639  0.44450368  0.20904834     0.10500
C183        C  0.48191953  0.39633787  0.19742735    -0.53000
C184        C  0.46114245  0.38712401  0.25262846     0.11100
H185        H  0.42265435  0.31725431  0.09700118     0.15600
H186        H  0.39794710  0.37712007  0.28890971     0.01300
H187        H  0.41899166  0.49030486  0.12112623     0.15900
H188        H  0.51461762  0.39599242  0.19467432     0.15700
C189        C  0.47643659  0.41128738  0.07909924    -0.17500
C190        C  0.48877462  0.41511661  0.02539926     0.06600
C191        C  0.49648454  0.41624499  0.95955193     0.08400
C192        C  0.49645355  0.41504767  0.90246086    -0.18400
C193        C  0.21734836  0.23567019  0.71174860    -0.17500
C194        C  0.25253368  0.25002848  0.70829017     0.06600
C195        C  0.29419036  0.26241089  0.70095622     0.08400
C196        C  0.32935685  0.27614645  0.69511873    -0.18400
C197        C  0.33292253  0.52947763  0.66923120    -0.17500
C198        C  0.29836156  0.04452986  0.67739847     0.06600
C199        C  0.25749496  0.05904987  0.68950995     0.08400
C200        C  0.22274053  0.07332211  0.69722660    -0.18400
C201        C  0.11151560  0.15434902  0.57633829    -0.17500
C202        C  0.09933195  0.15104837  0.52269574     0.06600
C203        C  0.09112230  0.14400617  0.45752809     0.08400
C204        C  0.09056578  0.13740881  0.40089921    -0.18400
C205        C  0.25688090  0.25324999  0.16845088    -0.17500
C206        C  0.29169394  0.26979055  0.17384902     0.06600
C207        C  0.33272460  0.28677005  0.18305266     0.08400
C208        C  0.36715954  0.30456441  0.19002764    -0.18400
C209        C  0.36339069  0.46626755  0.21148409    -0.17500
C210        C  0.32796007  0.47611741  0.20642647     0.06600
C211        C  0.28646819  0.48497391  0.19645421     0.08400
C212        C  0.25159403  0.99712641  0.18850627    -0.18400
C213        C  0.99054103  0.37106093  0.62095007    -0.17500
C214        C  0.99056461  0.37562333  0.56409519     0.06600
C215        C  0.98306308  0.38070310  0.49859717     0.08400
C216        C  0.97112950  0.38378751  0.44487359    -0.18400
C217        C  0.71369545  0.02441774  0.81661205    -0.17500
C218        C  0.74856962  0.01071376  0.82353679     0.06600
C219        C  0.78967370  0.99775653  0.83497638     0.08400
C220        C  0.82440349  0.48381974  0.84311611    -0.18400
C221        C  0.82995000  0.22768466  0.84895372    -0.17500
C222        C  0.79477376  0.21297106  0.84600124     0.06600
C223        C  0.75305743  0.19977997  0.84061559     0.08400
C224        C  0.71784276  0.18570547  0.83638242    -0.18400
C225        C  0.58573745  0.09494817  0.12522027    -0.17500
C226        C  0.58505734  0.09148003  0.06822390     0.06600
C227        C  0.59190277  0.08970124  0.00214522     0.08400
C228        C  0.60380954  0.09133362  0.94809172    -0.18400
C229        C  0.74945944  0.98741948  0.35811785    -0.17500
C230        C  0.78451172  0.47717292  0.34799591     0.06600
C231        C  0.82560928  0.46919329  0.33259396     0.08400
C232        C  0.86072301  0.45965226  0.32219991    -0.18400
C233        C  0.75441021  0.23832719  0.32924736    -0.17500
C234        C  0.78879601  0.25698739  0.32326435     0.06600
C235        C  0.82955269  0.27695302  0.31662810     0.08400
C236        C  0.86384083  0.29669998  0.31393907    -0.18400
C237        C  0.03376878  0.80974351  0.15787465     0.87500
C238        C  0.00639579  0.81042334  0.10129190    -0.52700
C239        C  0.98350373  0.86150205  0.09504693     0.10400
C240        C  0.98967761  0.90819987  0.15065109     0.21400
C241        C  0.05822402  0.87033582  0.15391597    -0.53500
C242        C  0.03587986  0.92244162  0.15092183     0.10500
C243        C  0.00602439  0.81735528  0.21450959    -0.53000
C244        C  0.98269160  0.86863543  0.21192972     0.11100
H245        H  0.00750095  0.77421110  0.06601928     0.15600
H246        H  0.97095465  0.94984648  0.14760742     0.01300
H247        H  0.09090930  0.87194579  0.15525893     0.15900
H248        H  0.00584072  0.78589358  0.25464599     0.15700
C249        C  0.55299823  0.70701327  0.66132003     0.87500
C250        C  0.58289548  0.70653886  0.60641455    -0.52700
C251        C  0.60366017  0.65297413  0.60004037     0.10400
C252        C  0.59431474  0.60569338  0.65387063     0.21400
C253        C  0.52717322  0.64789118  0.65245026    -0.53500
C254        C  0.54844337  0.59481264  0.64903843     0.10500
C255        C  0.57811503  0.69417135  0.72013901    -0.53000
C256        C  0.59984141  0.64130522  0.71706696     0.11100
H257        H  0.58342800  0.74276575  0.57077400     0.15600
H258        H  0.61190440  0.56285928  0.65112036     0.01300
H259        H  0.49450282  0.64766173  0.65067516     0.15900
H260        H  0.57739784  0.72298785  0.76199468     0.15700
O261        O  0.62656549  0.68157453  0.49748753    -0.77500
C262        C  0.71512353  0.70922300  0.33446623     0.83600
O263        O  0.53829277  0.69416261  0.35499436    -0.78600
O264        O  0.63176742  0.59760404  0.20735372    -0.80100
O265        O  0.69143222  0.51951306  0.41288399    -0.79900
O266        O  0.62104184  0.58131894  0.51830766    -0.76900
Zn267      Zn  0.63492532  0.69106158  0.40320311     1.55700
O268        O  0.69352575  0.52513441  0.30754302    -0.79900
Cd269      Cd  0.63201481  0.54870493  0.42629738     1.59700
Cd270      Cd  0.56595463  0.61062837  0.33103632     1.59600
O271        O  0.59055461  0.47942121  0.40456661    -0.79900
O272        O  0.62247435  0.61451313  0.36346164    -1.90400
Cd273      Cd  0.66063949  0.60254831  0.29307169     1.59900
O274        O  0.53813355  0.52670728  0.36044424    -0.79900
O275        O  0.70513545  0.67006633  0.29255069    -0.78500
C276        C  0.55535148  0.74663264  0.36556893     0.84000
C277        C  0.61937477  0.63732205  0.53607231     0.83700
O278        O  0.69228685  0.72106576  0.38141659    -0.77500
C279        C  0.70912911  0.51017273  0.36006393     0.84500
O280        O  0.59309430  0.75174263  0.37659592    -0.77600
C281        C  0.55492273  0.47813080  0.38157116     0.84600
C282        C  0.59488762  0.59961731  0.19153009     0.84900
O283        O  0.56657426  0.60557183  0.23189855    -0.80000
C284        C  0.62536218  0.59801472  0.88737949     0.87500
C285        C  0.65086306  0.54219551  0.87064391    -0.52700
C286        C  0.67370754  0.55009884  0.81715440     0.10400
C287        C  0.66623427  0.61174674  0.78309122     0.21400
C288        C  0.65571794  0.65235838  0.88846167    -0.53500
C289        C  0.67776993  0.65886454  0.83418529     0.10500
C290        C  0.59889511  0.60933924  0.82996880    -0.53000
C291        C  0.61999565  0.61703118  0.77482200     0.11100
H292        H  0.65593606  0.50513372  0.90422396     0.15600
H293        H  0.68336031  0.61784127  0.73819153     0.01300
H294        H  0.66285814  0.67779415  0.93125514     0.15900
H295        H  0.56645217  0.61431478  0.83305490     0.15700
O296        O  0.95664027  0.82010040  0.00141650    -0.77500
C297        C  0.86950803  0.75560877  0.84831333     0.83600
O298        O  0.04286298  0.78029937  0.85259761    -0.78600
O299        O  0.94529050  0.86497940  0.70417622    -0.80100
O300        O  0.88623556  0.96577187  0.89491543    -0.79900
O301        O  0.95887498  0.92217088  0.00746163    -0.78500
Zn302      Zn  0.94697100  0.79329152  0.91232220     1.55700
O303        O  0.87455378  0.92476306  0.79978149    -0.79900
Cd304      Cd  0.94571686  0.93749857  0.91099898     1.59700
Cd305      Cd  0.01311222  0.86285365  0.82600060     1.59600
O306        O  0.98703997  0.00275340  0.87955889    -0.79900
O307        O  0.95664079  0.86266398  0.86004809    -1.90400
Cd308      Cd  0.91727234  0.85825882  0.79053846     1.59900
O309        O  0.04039557  0.94760662  0.85053549    -0.79900
O310        O  0.88185605  0.77996376  0.79685765    -0.78500
C311        C  0.02591471  0.73048646  0.87306455     0.84000
C312        C  0.96337867  0.86934426  0.03269121     0.83700
O313        O  0.88976794  0.75966479  0.89937482    -0.77500
C314        C  0.86399716  0.95786301  0.84615145     0.84500
O315        O  0.98936166  0.72982344  0.89258319    -0.77600
C316        C  0.02403268  0.99912994  0.86333345     0.84600
C317        C  0.98211781  0.86650734  0.68743281     0.84900
O318        O  0.01102959  0.86467838  0.72701704    -0.80000
C319        C  0.95083822  0.88479196  0.38323003     0.87500
C320        C  0.92299980  0.93949104  0.37484637    -0.52700
C321        C  0.90169510  0.93842430  0.31964186     0.10400
C322        C  0.91286638  0.88452965  0.27594999     0.21400
C323        C  0.92339852  0.82777519  0.37345947    -0.53500
C324        C  0.90263659  0.82816315  0.31780142     0.10500
C325        C  0.97891594  0.88703202  0.32654065    -0.53000
C326        C  0.95960485  0.88625776  0.26956973     0.11100
H327        H  0.91550503  0.96961198  0.41386253     0.15600
H328        H  0.89699571  0.88450064  0.22975670     0.01300
H329        H  0.91683468  0.79470004  0.41099888     0.15900
H330        H  0.01144859  0.88439827  0.33090962     0.15700
C331        C  0.53047537  0.80449162  0.36722767     0.87500
C332        C  0.50482041  0.81484856  0.30878729    -0.52700
C333        C  0.48253377  0.86695818  0.31068285     0.10400
C334        C  0.48826488  0.90497757  0.37256938     0.21400
C335        C  0.55586318  0.86424730  0.37395253    -0.53500
C336        C  0.53417797  0.91699526  0.37654387     0.10500
C337        C  0.50104899  0.80575083  0.42263703    -0.53000
C338        C  0.47977302  0.85898641  0.42789980     0.11100
H339        H  0.50530430  0.78460113  0.26801024     0.15600
H340        H  0.47025301  0.94744307  0.37436957     0.01300
H341        H  0.58853361  0.86500100  0.37561625     0.15900
H342        H  0.50104430  0.77029205  0.45905747     0.15700
C343        C  0.04944824  0.55760185  0.86372893     0.87500
C344        C  0.07760580  0.55922600  0.91976803    -0.52700
C345        C  0.10016879  0.61204040  0.92581356     0.10400
C346        C  0.09328349  0.65895689  0.87059031     0.21400
C347        C  0.02490700  0.61661301  0.86893765    -0.53500
C348        C  0.04711304  0.67013211  0.87173745     0.10500
C349        C  0.07650732  0.56819595  0.80630458    -0.53000
C350        C  0.09979556  0.62084912  0.80886234     0.11100
H351        H  0.07690233  0.52281544  0.95523762     0.15600
H352        H  0.11190743  0.70182672  0.87339910     0.01300
H353        H  0.99221457  0.61621149  0.86847455     0.15900
H354        H  0.07636597  0.53753378  0.76580459     0.15700
O355        O  0.12816590  0.57453644  0.02061476    -0.77500
C356        C  0.21255992  0.52369795  0.18415927     0.83600
O357        O  0.03971729  0.53278242  0.17019018    -0.78600
O358        O  0.13570335  0.63598985  0.31762208    -0.80100
O359        O  0.19528689  0.72658945  0.11903660    -0.79900
O360        O  0.12128254  0.67592406  0.01314021    -0.78500
Zn361      Zn  0.13636494  0.55169770  0.11242251     1.55700
O362        O  0.20595837  0.69736917  0.21881115    -0.79900
Cd363      Cd  0.13559881  0.69499170  0.10800118     1.59700
Cd364      Cd  0.06903435  0.61748918  0.19625635     1.59600
O365        O  0.09567729  0.75844844  0.14072691    -0.79900
O366        O  0.12533831  0.62149605  0.16202822    -1.90400
Cd367      Cd  0.16404580  0.62745712  0.23213342     1.59900
O368        O  0.04217643  0.70032034  0.17033334    -0.79900
O369        O  0.20004870  0.55244055  0.23231891    -0.78500
C370        C  0.05698420  0.48416303  0.15040368     0.84000
C371        C  0.11941264  0.62248241  0.98856206     0.83700
O372        O  0.19309055  0.52207063  0.13211241    -0.77500
C373        C  0.21713116  0.72542693  0.16867664     0.84500
O374        O  0.09375377  0.48593897  0.13197655    -0.77600
C375        C  0.05886148  0.75277408  0.15784932     0.84600
C376        C  0.09903168  0.63116750  0.33461021     0.84900
O377        O  0.07044391  0.62148338  0.29540970    -0.80000
C378        C  0.13166815  0.65275602  0.63817541     0.87500
C379        C  0.15707225  0.71064192  0.65285088    -0.52700
C380        C  0.17788725  0.70702360  0.70848760     0.10400
C381        C  0.16933648  0.64702321  0.74558831     0.21400
C382        C  0.16151062  0.59980791  0.64237574    -0.53500
C383        C  0.18229546  0.59755042  0.69787531     0.10500
C384        C  0.10350477  0.64403861  0.69435513    -0.53000
C385        C  0.12272688  0.64094515  0.75125219     0.11100
H386        H  0.16332581  0.74612444  0.61756126     0.15600
H387        H  0.18506551  0.64430033  0.79180504     0.01300
H388        H  0.16965251  0.57244814  0.60151182     0.15900
H389        H  0.07107662  0.63801942  0.68945963     0.15700
O390        O  0.39165672  0.79220852  0.64394834    -0.77500
C391        C  0.46379110  0.87521272  0.49153448     0.83600
O392        O  0.54522737  0.81783886  0.67389295    -0.78600
O393        O  0.49183045  0.03284208  0.62159785    -0.80100
O394        O  0.38686046  0.98494604  0.72013355    -0.79900
O395        O  0.37931348  0.84048042  0.73463036    -0.78500
Zn396      Zn  0.44900582  0.82155887  0.62444805     1.55700
O397        O  0.39081117  0.99493824  0.61514360    -0.79900
Cd398      Cd  0.42216763  0.90957650  0.73418273     1.59700
Cd399      Cd  0.51694588  0.90169244  0.69659456     1.59600
O400        O  0.45079478  0.91417158  0.81996648    -0.79900
O401        O  0.46044876  0.89833646  0.66388452    -1.90400
Cd402      Cd  0.45002787  0.96393597  0.60083693     1.59900
O403        O  0.51607247  0.90674486  0.79574624    -0.79900
O404        O  0.46075512  0.93131776  0.50844780    -0.78500
C405        C  0.52821983  0.76529891  0.66339495     0.84000
C406        C  0.36905713  0.80307187  0.69133755     0.83700
O407        O  0.45779231  0.83125288  0.53082745    -0.77500
C408        C  0.37248062  0.00309262  0.66773470     0.84500
O409        O  0.49050593  0.76049115  0.65198544    -0.77600
C410        C  0.48762069  0.91201046  0.83599405     0.84600
C411        C  0.52747586  0.03398566  0.64450609     0.84900
O412        O  0.54418662  0.98558187  0.66628080    -0.80000
C413        C  0.45505036  0.90242564  0.13964506     0.87500
C414        C  0.42816689  0.84401167  0.13947824    -0.52700
C415        C  0.40613677  0.83545614  0.19353012     0.10400
C416        C  0.41479229  0.88483964  0.24398118     0.21400
C417        C  0.42611565  0.95448282  0.15509925    -0.53500
C418        C  0.40407590  0.94449869  0.20904655     0.10500
C419        C  0.48191952  0.89633436  0.19742736    -0.53000
C420        C  0.46114234  0.88712099  0.25262843     0.11100
H421        H  0.42265513  0.81724750  0.09700167     0.15600
H422        H  0.39794697  0.87711648  0.28890911     0.01300
H423        H  0.41899115  0.99029864  0.12112349     0.15900
H424        H  0.51461771  0.89598939  0.19467456     0.15700
C425        C  0.47643684  0.91128137  0.07909896    -0.17500
C426        C  0.48877513  0.91511031  0.02539915     0.06600
C427        C  0.49648548  0.91623867  0.95955203     0.08400
C428        C  0.49645498  0.91504231  0.90246099    -0.18400
C429        C  0.21734995  0.73566765  0.71175044    -0.17500
C430        C  0.25253540  0.75002517  0.70829252     0.06600
C431        C  0.29419200  0.76240808  0.70095855     0.08400
C432        C  0.32935825  0.77614483  0.69512054    -0.18400
C433        C  0.33292502  0.02947917  0.66923599    -0.17500
C434        C  0.29835883  0.54452789  0.67739237     0.06600
C435        C  0.25749206  0.55904751  0.68950347     0.08400
C436        C  0.22273776  0.57332010  0.69722124    -0.18400
C437        C  0.11151387  0.65435712  0.57633906    -0.17500
C438        C  0.09933055  0.65105785  0.52269623     0.06600
C439        C  0.09112157  0.64401575  0.45752830     0.08400
C440        C  0.09056557  0.63741732  0.40089953    -0.18400
C441        C  0.25688158  0.75324672  0.16844774    -0.17500
C442        C  0.29169469  0.76978639  0.17384647     0.06600
C443        C  0.33272522  0.78676523  0.18305140     0.08400
C444        C  0.36716007  0.80455930  0.19002763    -0.18400
C445        C  0.36339015  0.96626220  0.21148175    -0.17500
C446        C  0.32795960  0.97611233  0.20642358     0.06600
C447        C  0.28646800  0.98497003  0.19645039     0.08400
C448        C  0.25159394  0.49712890  0.18851047    -0.18400
C449        C  0.99054155  0.87106361  0.62095092    -0.17500
C450        C  0.99056610  0.87562677  0.56409608     0.06600
C451        C  0.98306557  0.88070709  0.49859780     0.08400
C452        C  0.97113222  0.88379163  0.44487410    -0.18400
C453        C  0.71369481  0.52441374  0.81661235    -0.17500
C454        C  0.74856920  0.51071014  0.82353544     0.06600
C455        C  0.78967369  0.49775380  0.83497315     0.08400
C456        C  0.82440335  0.98382208  0.84311986    -0.18400
C457        C  0.82995016  0.72768145  0.84894927    -0.17500
C458        C  0.79477426  0.71296593  0.84599707     0.06600
C459        C  0.75305800  0.69977436  0.84061266     0.08400
C460        C  0.71784322  0.68570049  0.83638066    -0.18400
C461        C  0.58573828  0.59494990  0.12522208    -0.17500
C462        C  0.58505827  0.59148128  0.06822567     0.06600
C463        C  0.59190365  0.58970156  0.00214699     0.08400
C464        C  0.60381011  0.59133285  0.94809323    -0.18400
C465        C  0.74945945  0.48741798  0.35811577    -0.17500
C466        C  0.78451190  0.97717460  0.34799916     0.06600
C467        C  0.82560968  0.96919498  0.33259807     0.08400
C468        C  0.86072345  0.95965419  0.32220370    -0.18400
C469        C  0.75441309  0.73832522  0.32924964    -0.17500
C470        C  0.78879892  0.75698539  0.32326682     0.06600
C471        C  0.82955545  0.77695198  0.31663088     0.08400
C472        C  0.86384326  0.79670035  0.31394202    -0.18400
loop_ 
_geom_bond_atom_site_label_1 
_geom_bond_atom_site_label_2 
_geom_bond_distance 
_geom_bond_site_symmetry_2 
_ccdc_geom_bond_type 
C1            C2   1.505       .  S
C1            C7   1.520       .  S
C1            C5   1.536       .  S
C1          C139   1.506       .  S
C2            H9   1.088       .  S
C2            C3   1.364   1_455  D
C3            C4   1.568       .  S
C3           C76   1.490       .  S
C4            C8   1.566       .  S
C4            C6   1.560   1_655  S
C4           H10   1.110       .  S
C5           H11   1.086       .  S
C5            C6   1.368       .  D
C6          C370   1.502       .  S
C7           H12   1.087       .  S
C7            C8   1.371   1_455  D
C8           C90   1.493       .  S
C13          C14   1.526       .  S
C13          C19   1.527       .  S
C13          C17   1.544       .  S
C13         C169   1.525       .  S
C14          H21   1.087       .  S
C14          C15   1.372       .  D
C15          C16   1.556       .  S
C15          C41   1.491       .  S
C16          C20   1.557       .  S
C16          C18   1.541       .  S
C16          H22   1.111       .  S
C17          H23   1.086       .  S
C17          C18   1.367       .  D
C18         C411   1.486       .  S
C19          H24   1.087       .  S
C19          C20   1.371       .  D
C20          C55   1.493       .  S
O25          C41   1.277       .  A
O25         Zn31   2.021       .  S
C26          O42   1.278       .  A
C26          O39   1.272       .  A
C26         C233   1.443       .  S
O27          C40   1.284       .  A
O27         Cd34   2.114       .  S
O28          C46   1.272       .  A
O28         Cd37   2.055       .  S
O29          C43   1.279       .  A
O29         Cd33   2.104       .  S
O30          C41   1.278       .  A
O30         Cd33   2.107       .  S
Zn31         O42   2.052       .  S
Zn31         O44   2.014       .  S
Zn31         O36   1.906       .  S
O32          C43   1.270       .  A
O32         Cd37   2.046       .  S
Cd33         O35   2.075   1_545  S
Cd33         O36   1.978       .  S
Cd34         O38   2.119       .  S
Cd34         O47   2.099       .  S
Cd34         O36   2.001       .  S
O35          C45   1.281       .  A
O36         Cd37   1.974       .  S
Cd37         O39   2.062       .  S
O38          C45   1.283   1_545  A
C40          C95   1.519       .  S
C40          O44   1.278       .  A
C43         C229   1.438   1_545  S
C45         C336   1.489       .  S
C46          O47   1.277       .  A
C46         C225   1.439       .  S
C48          C49   1.535       .  S
C48          C54   1.523       .  S
C48          C52   1.538       .  S
C48         C228   1.473       .  S
C49          H56   1.087       .  S
C49          C50   1.368       .  D
C50          C51   1.543       .  S
C50         C217   1.451       .  S
C51          C55   1.553       .  S
C51          C53   1.536       .  S
C51          H57   1.111       .  S
C52          H58   1.087       .  S
C52          C53   1.365       .  D
C53         C224   1.444       .  S
C54          H59   1.087       .  S
C54          C55   1.366       .  D
O60          C76   1.277       .  A
O60         Zn66   1.999   1_554  S
C61          O77   1.276       .  A
C61          O74   1.271       .  A
C61         C221   1.436       .  S
O62          C75   1.283       .  A
O62         Cd69   2.139       .  S
O63          C81   1.272       .  A
O63         Cd72   2.050       .  S
O64          C78   1.280       .  A
O64         Cd68   2.108       .  S
O65          C76   1.276       .  A
O65         Cd68   2.113   1_554  S
Zn66         O77   2.042       .  S
Zn66         O79   2.034       .  S
Zn66         O71   1.887       .  S
O67          C78   1.271       .  A
O67         Cd72   2.055       .  S
Cd68         O70   2.061       .  S
Cd68         O71   1.994       .  S
Cd69         O73   2.105       .  S
Cd69         O82   2.094       .  S
Cd69         O71   2.007   1_455  S
O70          C80   1.279   1_655  A
O71         Cd72   1.971       .  S
Cd72         O74   2.053       .  S
O73          C80   1.284       .  A
C75         C112   1.501       .  S
C75          O79   1.281   1_455  A
C78         C220   1.443       .  S
C80         C343   1.512       .  S
C81          O82   1.277   1_655  A
C81         C213   1.435       .  S
C83          C84   1.530       .  S
C83          C89   1.516       .  S
C83          C87   1.539       .  S
C83         C216   1.469       .  S
C84          H91   1.087       .  S
C84          C85   1.367       .  D
C85          C86   1.546       .  S
C85         C232   1.446       .  S
C86          C90   1.558       .  S
C86          C88   1.540       .  S
C86          H92   1.111       .  S
C87          H93   1.087       .  S
C87          C88   1.366       .  D
C88         C236   1.450       .  S
C89          H94   1.087   1_655  S
C89          C90   1.366       .  D
C95          C96   1.521       .  S
C95         C101   1.524       .  S
C95          C99   1.542       .  S
C96         H103   1.087       .  S
C96          C97   1.366       .  D
C97          C98   1.561       .  S
C97         C184   1.488       .  S
C98         C102   1.557       .  S
C98         C100   1.545       .  S
C98         H104   1.111       .  S
C99         H105   1.086       .  S
C99         C100   1.367       .  D
C100        C281   1.489       .  S
C101        H106   1.087       .  S
C101        C102   1.373       .  D
C102        C155   1.491       .  S
C107        C108   1.512       .  S
C107        C113   1.522       .  S
C107        C111   1.538       .  S
C107        C316   1.512   1_545  S
C108        H115   1.088       .  S
C108        C109   1.365       .  D
C109        C110   1.567       .  S
C109        C135   1.491       .  S
C110        C114   1.566       .  S
C110        C112   1.557       .  S
C110        H116   1.110       .  S
C111        H117   1.086   1_455  S
C111        C112   1.367       .  D
C113        H118   1.088       .  S
C113        C114   1.370       .  D
C114        C149   1.494       .  S
O119        C135   1.279   1_554  A
O119       Zn125   2.022       .  S
C120        O136   1.278       .  A
C120        O133   1.270       .  A
C120        C212   1.433   1_545  S
O121        C134   1.284   1_545  A
O121       Cd128   2.141       .  S
O122        C140   1.271       .  A
O122       Cd131   2.046       .  S
O123        C137   1.278       .  A
O123       Cd127   2.099       .  S
O124        C135   1.275   1_554  A
O124       Cd127   2.104       .  S
Zn125       O136   2.046       .  S
Zn125       O138   2.032   1_545  S
Zn125       O130   1.890       .  S
O126        C137   1.271       .  A
O126       Cd131   2.059       .  S
Cd127       O129   2.053       .  S
Cd127       O130   1.983       .  S
Cd128       O132   2.096       .  S
Cd128       O141   2.099       .  S
Cd128       O130   2.003       .  S
O129        C139   1.278       .  A
O130       Cd131   1.968       .  S
Cd131       O133   2.041       .  S
O132        C139   1.284       .  A
C134        C242   1.502       .  S
C134        O138   1.281       .  A
C137        C205   1.441       .  S
C140        O141   1.277       .  A
C140        C204   1.436       .  S
C142        C143   1.535       .  S
C142        C148   1.519       .  S
C142        C146   1.536       .  S
C142        C201   1.471       .  S
C143        H150   1.087       .  S
C143        C144   1.369       .  D
C144        C145   1.540       .  S
C144        C193   1.442       .  S
C145        C149   1.555       .  S
C145        C147   1.545       .  S
C145        H151   1.111       .  S
C146        H152   1.088       .  S
C146        C147   1.364       .  D
C147        C200   1.452       .  S
C148        H153   1.088       .  S
C148        C149   1.365       .  D
O154        C170   1.276       .  A
O154       Zn160   2.037       .  S
C155        O171   1.276       .  A
C155        O168   1.278       .  A
O156        C169   1.285       .  A
O156       Cd163   2.123       .  S
O157        C175   1.280       .  A
O157       Cd166   2.072       .  S
O158        C172   1.272       .  A
O158       Cd162   2.054       .  S
O159        C170   1.270       .  A
O159       Cd162   2.049       .  S
Zn160       O171   2.009       .  S
Zn160       O173   2.017       .  S
Zn160       O165   1.901       .  S
O161        C172   1.281       .  A
O161       Cd166   2.113       .  S
Cd162       O164   2.052       .  S
Cd162       O165   1.972       .  S
Cd163       O167   2.100       .  S
Cd163       O176   2.116       .  S
Cd163       O165   2.002       .  S
O164        C174   1.272       .  A
O165       Cd166   1.983       .  S
Cd166       O168   2.113       .  S
O167        C174   1.277       .  A
C169        O173   1.279       .  A
C170        C196   1.434       .  S
C172        C197   1.444       .  S
C174        C192   1.438       .  S
C175        C254   1.486       .  S
C175        O176   1.283       .  A
C177        C178   1.538       .  S
C177        C183   1.522       .  S
C177        C181   1.535       .  S
C177        C189   1.472       .  S
C178        H185   1.086       .  S
C178        C179   1.365       .  D
C179        C180   1.541       .  S
C179        C208   1.449       .  S
C180        C184   1.551       .  S
C180        C182   1.538       .  S
C180        H186   1.111       .  S
C181        H187   1.087       .  S
C181        C182   1.368       .  D
C182        C209   1.441       .  S
C183        H188   1.088       .  S
C183        C184   1.366       .  D
C189        C190   1.208       .  T
C190        C191   1.415   1_554  S
C191        C192   1.207       .  T
C193        C194   1.206       .  T
C194        C195   1.412       .  S
C195        C196   1.206       .  T
C197        C434   1.212       .  T
C198        C433   1.212       .  T
C198        C199   1.422       .  S
C199        C200   1.212       .  T
C201        C202   1.207       .  T
C202        C203   1.414       .  S
C203        C204   1.207       .  T
C205        C206   1.210       .  T
C206        C207   1.419       .  S
C207        C208   1.210       .  T
C209        C210   1.205       .  T
C210        C211   1.411       .  S
C211        C448   1.205       .  T
C212        C447   1.205       .  T
C213        C214   1.206       .  T
C214        C215   1.412       .  S
C215        C216   1.206       .  T
C217        C218   1.211       .  T
C218        C219   1.421   1_545  S
C219        C456   1.211       .  T
C220        C455   1.211       .  T
C221        C222   1.207       .  T
C222        C223   1.414       .  S
C223        C224   1.207       .  T
C225        C226   1.208       .  T
C226        C227   1.416       .  S
C227        C228   1.208   1_554  T
C229        C466   1.208       .  T
C230        C465   1.208       .  T
C230        C231   1.417       .  S
C231        C232   1.208       .  T
C233        C234   1.211       .  T
C234        C235   1.420       .  S
C235        C236   1.210       .  T
C237        C238   1.505       .  S
C237        C243   1.520       .  S
C237        C241   1.536       .  S
C237        C375   1.506       .  S
C238        H245   1.088       .  S
C238        C239   1.364   1_455  D
C239        C240   1.568       .  S
C239        C312   1.490       .  S
C240        C244   1.566       .  S
C240        C242   1.560   1_655  S
C240        H246   1.110       .  S
C241        H247   1.086       .  S
C241        C242   1.368       .  D
C243        H248   1.087       .  S
C243        C244   1.371   1_455  D
C244        C326   1.493       .  S
C249        C250   1.526       .  S
C249        C255   1.527       .  S
C249        C253   1.544       .  S
C249        C405   1.525       .  S
C250        H257   1.087       .  S
C250        C251   1.372       .  D
C251        C252   1.556       .  S
C251        C277   1.491       .  S
C252        C256   1.557       .  S
C252        C254   1.541       .  S
C252        H258   1.111       .  S
C253        H259   1.086       .  S
C253        C254   1.367       .  D
C255        H260   1.087       .  S
C255        C256   1.371       .  D
C256        C291   1.493       .  S
O261        C277   1.277       .  A
O261       Zn267   2.021       .  S
C262        O278   1.278       .  A
C262        O275   1.272       .  A
C262        C469   1.443       .  S
O263        C276   1.284       .  A
O263       Cd270   2.114       .  S
O264        C282   1.272       .  A
O264       Cd273   2.055       .  S
O265        C279   1.279       .  A
O265       Cd269   2.104       .  S
O266        C277   1.278       .  A
O266       Cd269   2.107       .  S
Zn267       O278   2.052       .  S
Zn267       O280   2.014       .  S
Zn267       O272   1.906       .  S
O268        C279   1.270       .  A
O268       Cd273   2.046       .  S
Cd269       O271   2.075       .  S
Cd269       O272   1.978       .  S
Cd270       O274   2.119       .  S
Cd270       O283   2.099       .  S
Cd270       O272   2.001       .  S
O271        C281   1.281       .  A
O272       Cd273   1.974       .  S
Cd273       O275   2.062       .  S
O274        C281   1.283       .  A
C276        C331   1.519       .  S
C276        O280   1.279       .  A
C279        C465   1.438       .  S
C282        O283   1.277       .  A
C282        C461   1.439       .  S
C284        C285   1.535       .  S
C284        C290   1.523       .  S
C284        C288   1.538       .  S
C284        C464   1.473       .  S
C285        H292   1.087       .  S
C285        C286   1.368       .  D
C286        C287   1.543       .  S
C286        C453   1.451       .  S
C287        C291   1.553       .  S
C287        C289   1.536       .  S
C287        H293   1.111       .  S
C288        H294   1.087       .  S
C288        C289   1.365       .  D
C289        C460   1.444       .  S
C290        H295   1.087       .  S
C290        C291   1.366       .  D
O296        C312   1.277       .  A
O296       Zn302   1.999   1_554  S
C297        O313   1.276       .  A
C297        O310   1.271       .  A
C297        C457   1.436       .  S
O298        C311   1.283       .  A
O298       Cd305   2.139       .  S
O299        C317   1.272       .  A
O299       Cd308   2.050       .  S
O300        C314   1.280       .  A
O300       Cd304   2.108       .  S
O301        C312   1.276       .  A
O301       Cd304   2.113   1_554  S
Zn302       O313   2.042       .  S
Zn302       O315   2.034       .  S
Zn302       O307   1.887       .  S
O303        C314   1.271       .  A
O303       Cd308   2.055       .  S
Cd304       O306   2.061   1_565  S
Cd304       O307   1.994       .  S
Cd305       O309   2.105       .  S
Cd305       O318   2.094       .  S
Cd305       O307   2.007   1_455  S
O306        C316   1.279   1_645  A
O307       Cd308   1.971       .  S
Cd308       O310   2.053       .  S
O309        C316   1.284       .  A
C311        C348   1.501       .  S
C311        O315   1.281   1_455  A
C314        C456   1.443       .  S
C317        O318   1.277   1_655  A
C317        C449   1.435       .  S
C319        C320   1.530       .  S
C319        C325   1.516       .  S
C319        C323   1.539       .  S
C319        C452   1.469       .  S
C320        H327   1.087       .  S
C320        C321   1.367       .  D
C321        C322   1.546       .  S
C321        C468   1.446       .  S
C322        C326   1.558       .  S
C322        C324   1.540       .  S
C322        H328   1.111       .  S
C323        H329   1.087       .  S
C323        C324   1.366       .  D
C324        C472   1.450       .  S
C325        H330   1.087   1_655  S
C325        C326   1.366       .  D
C331        C332   1.521       .  S
C331        C337   1.524       .  S
C331        C335   1.542       .  S
C332        H339   1.087       .  S
C332        C333   1.366       .  D
C333        C334   1.561       .  S
C333        C420   1.488       .  S
C334        C338   1.557       .  S
C334        C336   1.545       .  S
C334        H340   1.111       .  S
C335        H341   1.086       .  S
C335        C336   1.367       .  D
C337        H342   1.087       .  S
C337        C338   1.373       .  D
C338        C391   1.491       .  S
C343        C344   1.512       .  S
C343        C349   1.522       .  S
C343        C347   1.538       .  S
C344        H351   1.088       .  S
C344        C345   1.365       .  D
C345        C346   1.567       .  S
C345        C371   1.491       .  S
C346        C350   1.566       .  S
C346        C348   1.557       .  S
C346        H352   1.110       .  S
C347        H353   1.086   1_455  S
C347        C348   1.367       .  D
C349        H354   1.088       .  S
C349        C350   1.370       .  D
C350        C385   1.494       .  S
O355        C371   1.279   1_554  A
O355       Zn361   2.022       .  S
C356        O372   1.278       .  A
C356        O369   1.270       .  A
C356        C448   1.433       .  S
O357        C370   1.284       .  A
O357       Cd364   2.141       .  S
O358        C376   1.271       .  A
O358       Cd367   2.046       .  S
O359        C373   1.278       .  A
O359       Cd363   2.099       .  S
O360        C371   1.275   1_554  A
O360       Cd363   2.104       .  S
Zn361       O372   2.046       .  S
Zn361       O374   2.032       .  S
Zn361       O366   1.890       .  S
O362        C373   1.271       .  A
O362       Cd367   2.059       .  S
Cd363       O365   2.053       .  S
Cd363       O366   1.983       .  S
Cd364       O368   2.096       .  S
Cd364       O377   2.099       .  S
Cd364       O366   2.003       .  S
O365        C375   1.278       .  A
O366       Cd367   1.968       .  S
Cd367       O369   2.041       .  S
O368        C375   1.284       .  A
C370        O374   1.281       .  A
C373        C441   1.441       .  S
C376        O377   1.277       .  A
C376        C440   1.436       .  S
C378        C379   1.535       .  S
C378        C384   1.519       .  S
C378        C382   1.536       .  S
C378        C437   1.471       .  S
C379        H386   1.087       .  S
C379        C380   1.369       .  D
C380        C381   1.540       .  S
C380        C429   1.442       .  S
C381        C385   1.555       .  S
C381        C383   1.545       .  S
C381        H387   1.111       .  S
C382        H388   1.088       .  S
C382        C383   1.364       .  D
C383        C436   1.452       .  S
C384        H389   1.088       .  S
C384        C385   1.365       .  D
O390        C406   1.276       .  A
O390       Zn396   2.037       .  S
C391        O407   1.276       .  A
C391        O404   1.278       .  A
O392        C405   1.285       .  A
O392       Cd399   2.123       .  S
O393        C411   1.280       .  A
O393       Cd402   2.072   1_545  S
O394        C408   1.272   1_565  A
O394       Cd398   2.054       .  S
O395        C406   1.270       .  A
O395       Cd398   2.049       .  S
Zn396       O407   2.009       .  S
Zn396       O409   2.017       .  S
Zn396       O401   1.901       .  S
O397        C408   1.281   1_565  A
O397       Cd402   2.113       .  S
Cd398       O400   2.052       .  S
Cd398       O401   1.972       .  S
Cd399       O403   2.100       .  S
Cd399       O412   2.116       .  S
Cd399       O401   2.002       .  S
O400        C410   1.272       .  A
O401       Cd402   1.983       .  S
Cd402       O404   2.113       .  S
O403        C410   1.277       .  A
C405        O409   1.279       .  A
C406        C432   1.434       .  S
C408        C433   1.444       .  S
C410        C428   1.438       .  S
C411        O412   1.283   1_545  A
C413        C414   1.538       .  S
C413        C419   1.522       .  S
C413        C417   1.535       .  S
C413        C425   1.472       .  S
C414        H421   1.086       .  S
C414        C415   1.365       .  D
C415        C416   1.541       .  S
C415        C444   1.449       .  S
C416        C420   1.551       .  S
C416        C418   1.538       .  S
C416        H422   1.111       .  S
C417        H423   1.087       .  S
C417        C418   1.368       .  D
C418        C445   1.441       .  S
C419        H424   1.088       .  S
C419        C420   1.366       .  D
C425        C426   1.208       .  T
C426        C427   1.415   1_554  S
C427        C428   1.207       .  T
C429        C430   1.206       .  T
C430        C431   1.412       .  S
C431        C432   1.206       .  T
C434        C435   1.422       .  S
C435        C436   1.212       .  T
C437        C438   1.207       .  T
C438        C439   1.414       .  S
C439        C440   1.207       .  T
C441        C442   1.210       .  T
C442        C443   1.419       .  S
C443        C444   1.210       .  T
C445        C446   1.205       .  T
C446        C447   1.411       .  S
C449        C450   1.206       .  T
C450        C451   1.412       .  S
C451        C452   1.206       .  T
C453        C454   1.211       .  T
C454        C455   1.421       .  S
C457        C458   1.207       .  T
C458        C459   1.414       .  S
C459        C460   1.207       .  T
C461        C462   1.208       .  T
C462        C463   1.416       .  S
C463        C464   1.208   1_554  T
C466        C467   1.417       .  S
C467        C468   1.208       .  T
C469        C470   1.211       .  T
C470        C471   1.420       .  S
C471        C472   1.210       .  T
