geometry optimzed in LAMMPS
_audit_creation_date              2020-11-30 
_audit_creation_method            'lammps2cif' 
_symmetry_space_group_name_H-M    'P1' 
_symmetry_Int_Tables_number       1 
_symmetry_cell_setting            triclinic 
loop_ 
_symmetry_equiv_pos_as_xyz 
  x,y,z 
_cell_length_a                    30.93718841 
_cell_length_b                    35.711440504332714 
_cell_length_c                    46.63135069004362 
_cell_angle_alpha                 82.25901562345832 
_cell_angle_beta                  89.22046623894376 
_cell_angle_gamma                 87.64033773323831 
loop_ 
_atom_site_label 
_atom_site_type_symbol 
_atom_site_fract_x 
_atom_site_fract_y 
_atom_site_fract_z 
_atom_site_charge 
C1          C  0.00419033  0.41215129  0.09371457     0.86200
C2          C  0.95995875  0.40344721  0.10856650    -0.54100
C3          C  0.94107384  0.37178663  0.10118938     0.09100
C4          C  0.96904777  0.35199132  0.07931246     0.20000
C5          C  0.03195937  0.37561980  0.10063623    -0.54800
C6          C  0.01389521  0.34364515  0.09383867     0.09200
C7          C  0.99366811  0.41464947  0.06140712    -0.54300
C8          C  0.97578414  0.38344969  0.05362729     0.09800
H9          H  0.94437365  0.42179102  0.12250954     0.14300
H10         H  0.95474475  0.32682732  0.07249569     0.00000
H11         H  0.06424587  0.37586687  0.10931706     0.14600
H12         H  0.99956930  0.43928092  0.04572412     0.14400
C13         C  0.58221304  0.18722631  0.34587570     0.86200
C14         C  0.55441780  0.15194870  0.34908911    -0.54100
C15         C  0.57498755  0.12072683  0.34044104     0.09100
C16         C  0.62063579  0.12753038  0.32842209     0.20000
C17         C  0.62452021  0.17400833  0.36168172    -0.54800
C18         C  0.64527193  0.14273358  0.35252750     0.09200
C19         C  0.59486668  0.19224983  0.31349736    -0.54300
C20         C  0.61460581  0.16111612  0.30437910     0.09800
H21         H  0.52138799  0.15152662  0.35719202     0.14300
H22         H  0.63556709  0.10200835  0.32067369     0.00000
H23         H  0.63625719  0.18913439  0.37838414     0.14600
H24         H  0.58786831  0.21762027  0.29860300     0.14400
O25         O  0.64982157  0.10062739  0.18536770    -0.81200
O26         O  0.67648451  0.09790848  0.05059830    -0.65900
O27         O  0.68946148  0.11077435  0.12986802    -1.12500
C28         C  0.60873264  0.22538100  0.10857556     1.05700
O29         O  0.66963427  0.15891176  0.03195266    -0.79100
O30         O  0.70608353  0.19783280  0.07106948    -0.66700
Ni31       Ni  0.67699720  0.06956742  0.15924870     1.34900
C32         C  0.71871747  0.20189774  0.09623661     0.84400
O33         O  0.72329259  0.06003396  0.09358714    -0.79600
O34         O  0.70459360  0.03314400  0.13791434    -0.89900
C35         C  0.67539668  0.12418475  0.02935017     0.84000
O36         O  0.62165408  0.05971919  0.14475590    -0.68100
O37         O  0.62602013  0.22588132  0.08372402    -0.87400
C38         C  0.61273845  0.05426271  0.11915686     0.84800
C39         C  0.72396693  0.03210384  0.11382938     1.06400
H40         H  0.61245412  0.13743763  0.08796516     0.38200
O41         O  0.64157850  0.14579818  0.08939338    -1.10100
O42         O  0.69897728  0.18771227  0.11921703    -0.66700
Ni43       Ni  0.65095983  0.15409754  0.12840748     1.26300
O44         O  0.63513367  0.06803384  0.09730822    -0.66900
O45         O  0.61044292  0.19615387  0.12725408    -0.79200
C46         C  0.65362265  0.13509106  0.18834467     0.84200
O47         O  0.66105595  0.16019732  0.16734921    -0.66400
Ni48       Ni  0.64856793  0.18897912  0.06034812     1.27400
Ni49       Ni  0.68237697  0.10286915  0.09056769     1.26100
H50         H  0.71877338  0.11790833  0.13244356     0.38700
C51         C  0.75346409  0.08413051  0.37094456     0.86200
C52         C  0.70985571  0.09481781  0.35516396    -0.54100
C53         C  0.68775669  0.12574126  0.36433979     0.09100
C54         C  0.71201445  0.14236707  0.38805301     0.20000
C55         C  0.77812657  0.12095150  0.36583541    -0.54800
C56         C  0.75648612  0.15142138  0.37456627     0.09200
C57         C  0.74023173  0.07865731  0.40287597    -0.54300
C58         C  0.71987605  0.10910379  0.41223408     0.09800
H59         H  0.69795383  0.07955748  0.33860039     0.14300
H60         H  0.69591689  0.16716117  0.39592275     0.00000
H61         H  0.81011412  0.12270691  0.35595756     0.14600
H62         H  0.74612211  0.05209708  0.41683052     0.14400
O63         O  0.90143408  0.40396161  0.28050501    -0.81200
O64         O  0.93657539  0.40182650  0.41423465    -0.65900
O65         O  0.94362909  0.38876924  0.33391393    -1.12500
C66         C  0.84506418  0.29096669  0.36607161     1.05700
O67         O  0.94886339  0.34081580  0.42417018    -0.79100
O68         O  0.94128633  0.28736681  0.39088694    -0.66700
Ni69       Ni  0.93456006  0.43137837  0.30490969     1.34900
C70         C  0.96104168  0.28804956  0.36686996     0.84400
O71         O  0.98373949  0.43377436  0.36951373    -0.79600
O72         O  0.96887788  0.46347624  0.32517724    -0.89900
C73         C  0.94619562  0.37304533  0.43247431     0.84000
O74         O  0.88212746  0.45061308  0.32080436    -0.68100
O75         O  0.85419945  0.29731937  0.39149951    -0.87400
C76         C  0.87469013  0.45589529  0.34683036     0.84800
C77         C  0.98844645  0.46109284  0.34934806     1.06400
H78         H  0.86912644  0.37269223  0.37753082     0.38200
O79         O  0.89723151  0.36025548  0.37592757    -1.10100
O80         O  0.95123045  0.31198811  0.34482086    -0.66700
Ni81       Ni  0.90306960  0.34881825  0.33738069     1.26300
O82         O  0.89606494  0.43811495  0.36806326    -0.66900
O83         O  0.86246934  0.30809954  0.34303807    -0.79200
C84         C  0.90152105  0.36928592  0.27676404     0.84200
O85         O  0.90799053  0.34232428  0.29730137    -0.66400
Ni86       Ni  0.90108410  0.32039501  0.40700441     1.27400
Ni87       Ni  0.94008937  0.39734515  0.37350580     1.26100
H88         H  0.97229622  0.37827363  0.33057674     0.38700
C89         C  0.83427102  0.31848811  0.11935137     0.86200
C90         C  0.80649028  0.35506231  0.11089803    -0.54100
C91         C  0.82384285  0.38726901  0.11766152     0.09100
C92         C  0.86804333  0.37990263  0.13279044     0.20000
C93         C  0.87874294  0.32683886  0.10524294    -0.54800
C94         C  0.89715176  0.35892136  0.11217982     0.09200
C95         C  0.84141987  0.31838584  0.15198663    -0.54300
C96         C  0.85922512  0.35011918  0.15916262     0.09800
H97         H  0.77477180  0.35534981  0.10116819     0.14300
H98         H  0.88104944  0.40589194  0.13917908     0.00000
H99         H  0.89383995  0.30817263  0.09126564     0.14600
H100        H  0.83244496  0.29583916  0.16845812     0.14400
C101        C  0.51206788  0.36299514  0.13102443     0.86200
C102        C  0.46774445  0.36189507  0.11737558    -0.54100
C103        C  0.43979952  0.39093834  0.12176418     0.09100
C104        C  0.45943470  0.42010570  0.13927671     0.20000
C105        C  0.52900310  0.40204747  0.11881643    -0.54800
C106        C  0.50221293  0.43216416  0.12350452     0.09200
C107        C  0.50283224  0.36667938  0.16302590    -0.54300
C108        C  0.47519178  0.39626158  0.16753179     0.09800
H109        H  0.45836143  0.33874237  0.10615306     0.14300
H110        H  0.43704340  0.44424167  0.14265351     0.00000
H111        H  0.56153703  0.40647815  0.11057599     0.14600
H112        H  0.51752708  0.34769053  0.18069676     0.14400
C113        C  0.08566919  0.08819806  0.37108404     0.86200
C114        C  0.05849857  0.12528355  0.36342621    -0.54100
C115        C  0.07666168  0.15640004  0.37144855     0.09100
C116        C  0.12042081  0.14752078  0.38682580     0.20000
C117        C  0.13037459  0.09611068  0.35768429    -0.54800
C118        C  0.14899309  0.12735806  0.36555858     0.09200
C119        C  0.09222263  0.08607320  0.40390829    -0.54300
C120        C  0.11104700  0.11651690  0.41222425     0.09800
H121        H  0.02634246  0.12671447  0.35423457     0.14300
H122        H  0.13390063  0.17293838  0.39383598     0.00000
H123        H  0.14557724  0.07764019  0.34361019     0.14600
H124        H  0.08261216  0.06263889  0.41962249     0.14400
O125        O  0.16887295  0.16048849  0.03402598    -0.81200
O126        O  0.18573923  0.15934114  0.16992494    -0.65900
O127        O  0.19460259  0.14373118  0.09087812    -1.12500
C128        C  0.10075644  0.04328809  0.11828952     1.05700
O129        O  0.19019072  0.09808387  0.18723469    -0.79100
O130        O  0.21076601  0.05562555  0.14384011    -0.66700
Ni131      Ni  0.18868392  0.18821303  0.06300612     1.34900
C132        C  0.21677422  0.05088365  0.11751292     0.84400
O133        O  0.23507287  0.18878382  0.12690870    -0.79600
O134        O  0.21015913  0.22302124  0.08712745    -0.89900
C135        C  0.19166112  0.13284333  0.19055772     0.84000
O136        O  0.13117215  0.19773675  0.07564746    -0.68100
O137        O  0.12431466  0.03920433  0.14084922    -0.87400
C138        C  0.12218604  0.20629477  0.10068521     0.84800
C139        C  0.23279792  0.21950383  0.10987618     1.06400
H140        H  0.11958725  0.12659442  0.13797642     0.38200
O141        O  0.14736758  0.11531764  0.13359689    -1.10100
O142        O  0.19199375  0.06680602  0.09741884    -0.66700
Ni143      Ni  0.14855557  0.10793000  0.09385189     1.26300
O144        O  0.14494021  0.19310049  0.12292809    -0.66900
O145        O  0.10313871  0.07205987  0.09890082    -0.79200
C146        C  0.15499732  0.12816140  0.03173834     0.84200
O147        O  0.14821851  0.10326244  0.05333995    -0.66400
Ni148      Ni  0.15801027  0.07138149  0.16153132     1.27400
Ni149      Ni  0.19037695  0.15268471  0.13030413     1.26100
H150        H  0.22222981  0.13121626  0.08776338     0.38700
C151        C  0.25710603  0.17809956  0.35056960     0.86200
C152        C  0.21240038  0.16990522  0.36405446    -0.54100
C153        C  0.19264462  0.14000158  0.35490237     0.09100
C154        C  0.22006520  0.12124233  0.33234120     0.20000
C155        C  0.28305983  0.14000666  0.35638467    -0.54800
C156        C  0.26377840  0.11058484  0.34677046     0.09200
C157        C  0.24942738  0.18312724  0.31756619    -0.54300
C158        C  0.22933995  0.15366591  0.30807106     0.09800
H159        H  0.19820031  0.18712459  0.37935625     0.14300
H160        H  0.20608729  0.09662999  0.32438345     0.00000
H161        H  0.31480117  0.13574990  0.36595037     0.14600
H162        H  0.25857398  0.20800045  0.30310040     0.14400
O163        O  0.44613825  0.37370491  0.29803254    -0.81200
O164        O  0.41007727  0.35705048  0.42987737    -0.65900
O165        O  0.39709843  0.38045919  0.34708350    -1.12500
C166        C  0.48971045  0.48061676  0.36010968     1.05700
O167        O  0.39389819  0.41738621  0.42848224    -0.79100
O168        O  0.39693396  0.47692582  0.38904807    -0.66700
Ni169      Ni  0.40354242  0.34535811  0.32069269     1.34900
C170        C  0.37546419  0.47743253  0.36606745     0.84400
O171        O  0.36453560  0.32433611  0.38901456    -0.79600
O172        O  0.36143742  0.31525872  0.34182890    -0.89900
C173        C  0.40061378  0.38545082  0.44327216     0.84000
O174        O  0.44921268  0.31516182  0.33940476    -0.68100
O175        O  0.48459531  0.47097423  0.38730090    -0.87400
C176        C  0.46684920  0.31148232  0.36402112     0.84800
C177        C  0.34989458  0.30808172  0.36829402     1.06400
H178        H  0.47309339  0.39563743  0.38457764     0.38200
O179        O  0.44392605  0.40632723  0.38276060    -1.10100
O180        O  0.38464139  0.45541471  0.34736546    -0.66700
Ni181      Ni  0.43444327  0.42218260  0.34274766     1.26300
O182        O  0.45324145  0.32920561  0.38468156    -0.66900
O183        O  0.47145606  0.46477795  0.34064147    -0.79200
C184        C  0.43946210  0.40753647  0.28637996     0.84200
O185        O  0.42633571  0.43286790  0.30153135    -0.66400
Ni186      Ni  0.43972301  0.44313848  0.40805876     1.27400
Ni187      Ni  0.40453758  0.36531917  0.38763290     1.26100
H188        H  0.36764888  0.39038300  0.34469226     0.38700
C189        C  0.32608216  0.35615156  0.11013295     0.86200
C190        C  0.36972892  0.35846510  0.12535090    -0.54100
C191        C  0.39357323  0.38879882  0.11407785     0.09100
C192        C  0.37171114  0.41377405  0.08828821     0.20000
C193        C  0.30384600  0.39495588  0.11222232    -0.54800
C194        C  0.32688161  0.42505246  0.10040571     0.09200
C195        C  0.33826561  0.35649563  0.07828884    -0.54300
C196        C  0.36259185  0.38556845  0.06660586     0.09800
H197        H  0.38174842  0.33760061  0.14278933     0.14300
H198        H  0.39117870  0.43802497  0.07913979     0.00000
H199        H  0.27283492  0.39873134  0.12283984     0.14600
H200        H  0.32840501  0.33467997  0.06584855     0.14400
C201        C  0.39573274  0.38391162  0.47542110    -0.05800
C202        C  0.38538455  0.41812275  0.48669956    -0.32400
C203        C  0.37436820  0.42062500  0.01663513     0.36000
C204        C  0.37818897  0.38713237  0.03597565    -0.06100
C205        C  0.39181490  0.35342754  0.02503342    -0.33100
C206        C  0.40031358  0.35049540  0.49505259     0.35900
H207        H  0.38223745  0.44465944  0.47246398     0.16300
O208        O  0.36068653  0.45389445  0.02608114    -0.60600
H209        H  0.39597639  0.32729700  0.03966453     0.16300
O210        O  0.41216435  0.31678595  0.48560622    -0.60700
H211        H  0.38459140  0.30532298  0.48161494     0.43300
H212        H  0.39105012  0.46631538  0.52697904     0.43300
C213        C  0.31980843  0.27710903  0.37393669    -0.05800
C214        C  0.27958685  0.28101001  0.36007547    -0.33200
C215        C  0.25800049  0.24913537  0.35407175     0.36000
C216        C  0.27715369  0.21242658  0.36129599    -0.06100
C217        C  0.31518043  0.20894552  0.37813768    -0.33100
C218        C  0.33649997  0.24078576  0.38412249     0.35900
H219        H  0.26644561  0.30895352  0.35189742     0.16300
O220        O  0.21891083  0.25419648  0.34018847    -0.60600
H221        H  0.33003403  0.18191594  0.38626881     0.16300
O222        O  0.37636185  0.23603214  0.39693406    -0.60700
H223        H  0.37049627  0.23576316  0.41791180     0.43300
H224        H  0.22549514  0.26582734  0.32015677     0.43300
C225        C  0.28517498  0.07246524  0.34943530    -0.05800
C226        C  0.30400208  0.05899405  0.32504318    -0.33200
C227        C  0.33193970  0.02662941  0.32814487     0.36000
C228        C  0.34136869  0.00750903  0.35599410    -0.06100
C229        C  0.32011077  0.01993268  0.38009273    -0.33100
C230        C  0.29220751  0.05197631  0.37694202     0.35900
H231        H  0.29908519  0.07486988  0.30376613     0.16300
O232        O  0.35279872  0.01613551  0.30417470    -0.60600
H233        H  0.32820158  0.50743845  0.40709714     0.16300
O234        O  0.27373297  0.06428028  0.40108405    -0.60700
H235        H  0.24462177  0.05350511  0.40270898     0.43300
H236        H  0.33319916  0.99866338  0.29648130     0.43300
C237        C  0.21779283  0.15235977  0.27731885    -0.05800
C238        C  0.24684346  0.16453784  0.25481474    -0.33200
C239        C  0.23794711  0.15993312  0.22605173     0.36000
C240        C  0.20019044  0.14211254  0.21969410    -0.06100
C241        C  0.17038374  0.13158761  0.24180918    -0.33100
C242        C  0.17853366  0.13709665  0.27034928     0.35900
H243        H  0.27708812  0.17652260  0.25961259     0.16300
O244        O  0.26738245  0.17091812  0.20462181    -0.60600
H245        H  0.14052472  0.11899817  0.23691265     0.16300
O246        O  0.14715256  0.12894872  0.29107298    -0.60700
H247        H  0.14268561  0.10146800  0.29197049     0.43300
H248        H  0.26157152  0.19849191  0.19935870     0.43300
C249        C  0.25462459  0.25345147  0.11658915    -0.05800
C250        C  0.23355301  0.28874712  0.10904289    -0.33200
C251        C  0.25487949  0.32229315  0.10963377     0.36000
C252        C  0.29842281  0.32164329  0.11909554    -0.06100
C253        C  0.31864929  0.28582226  0.12826510    -0.33100
C254        C  0.29700166  0.25205476  0.12731710     0.35900
H255        H  0.20077408  0.29042909  0.10087999     0.16300
O256        O  0.23349478  0.35537392  0.09856779    -0.60600
H257        H  0.35246170  0.28348014  0.13403297     0.16300
O258        O  0.31910592  0.21799264  0.13402121    -0.60700
H259        H  0.31700050  0.21214943  0.15537495     0.43300
H260        H  0.23929406  0.35827395  0.07742675     0.43300
C261        C  0.30836393  0.46407844  0.10052122    -0.05800
C262        C  0.31435141  0.48274911  0.12470737    -0.33200
C263        C  0.28418320  0.00854159  0.12991702     0.36000
C264        C  0.25217829  0.02406415  0.10985232    -0.06100
C265        C  0.24958130  0.50958785  0.08514335    -0.33100
C266        C  0.27651062  0.47840074  0.08027408     0.35900
H267        H  0.33842073  0.47176230  0.14063140     0.16300
O268        O  0.28696843  0.02072832  0.15647585    -0.60600
H269        H  0.22721579  0.02173416  0.06693437     0.16300
O270        O  0.26863130  0.45969330  0.05715870    -0.60700
H271        H  0.27846208  0.47657932  0.03987989     0.43300
H272        H  0.27243980  0.00145367  0.17020123     0.43300
C273        C  0.12130679  0.11824936  0.44302469    -0.05800
C274        C  0.09163522  0.10513026  0.46490554    -0.33200
C275        C  0.10117117  0.10531238  0.49416432     0.36000
C276        C  0.14534914  0.12105092  0.00210597    -0.06100
C277        C  0.17041750  0.13170811  0.48016384    -0.33100
C278        C  0.16128769  0.13096491  0.45095911     0.35900
H279        H  0.06060601  0.09524869  0.45931197     0.16300
O280        O  0.08043115  0.08879728  0.01764319    -0.60600
H281        H  0.20098150  0.14240825  0.48586880     0.16300
O282        O  0.19237769  0.14118254  0.43049527    -0.60700
H283        H  0.19586730  0.16861121  0.43080356     0.43300
H284        H  0.07591607  0.06583249  0.51882134     0.43300
C285        C  0.44920075  0.41584947  0.25531274    -0.05800
C286        C  0.41526257  0.41947557  0.23533205    -0.33200
C287        C  0.42325345  0.41468471  0.20625015     0.36000
C288        C  0.46560875  0.40584055  0.19709272    -0.06100
C289        C  0.49970591  0.40457953  0.21684534    -0.33100
C290        C  0.49174880  0.40941751  0.24567241     0.35900
H291        H  0.38218468  0.42309120  0.24272613     0.16300
O292        O  0.38907532  0.41487898  0.18780498    -0.60600
H293        H  0.53264318  0.39864319  0.21008564     0.16300
O294        O  0.52540622  0.40479162  0.26484451    -0.60700
H295        H  0.53431869  0.43076424  0.26650352     0.43300
H296        H  0.37918992  0.44178244  0.18346871     0.43300
C297        C  0.01818494  0.99011709  0.35269436    -0.05800
C298        C  0.01667052  0.02340833  0.33276690    -0.33200
C299        C  0.04111768  0.05424046  0.33696035     0.36000
C300        C  0.06624504  0.05285929  0.36217082    -0.06100
C301        C  0.07271400  0.01751176  0.37943361    -0.33100
C302        C  0.04852353  0.98661228  0.37519146     0.35900
H303        H  0.99539793  0.02617809  0.31427523     0.16300
O304        O  0.03937264  0.08569645  0.31653673    -0.60600
H305        H  0.09589801  0.01367820  0.39682965     0.16300
O306        O  0.04788008  0.45699146  0.39761325    -0.60700
H307        H  0.07695037  0.93866512  0.38432014     0.43300
H308        H  0.06297393  0.08144609  0.30260081     0.43300
C309        C  0.99648428  0.25876778  0.36565955    -0.05800
C310        C  0.01759314  0.24417947  0.39160429    -0.33200
C311        C  0.04559478  0.21222688  0.39326239     0.36000
C312        C  0.05301737  0.19383054  0.36874994    -0.06100
C313        C  0.03401386  0.20945103  0.34231229    -0.33100
C314        C  0.00615601  0.24185272  0.34058213     0.35900
H315        H  0.01097137  0.25670906  0.41120086     0.16300
O316        O  0.06213789  0.19714670  0.41964845    -0.60600
H317        H  0.03968625  0.19572164  0.32317512     0.16300
O318        O  0.98698210  0.25543740  0.31471359    -0.60700
H319        H  0.95975001  0.24174928  0.31458391     0.43300
H320        H  0.08678548  0.21296364  0.42281636     0.43300
C321        C  0.89230478  0.36128723  0.24729021    -0.05800
C322        C  0.85335741  0.34522234  0.24156631    -0.33200
C323        C  0.84151308  0.34226091  0.21300212     0.36000
C324        C  0.86944047  0.35472258  0.18965415    -0.06100
C325        C  0.90834870  0.37093199  0.19557518    -0.33100
C326        C  0.91963966  0.37452360  0.22404209     0.35900
H327        H  0.83119347  0.33646092  0.25916394     0.16300
O328        O  0.80128167  0.32977330  0.20799034    -0.60600
H329        H  0.93032422  0.38061949  0.17810544     0.16300
O330        O  0.95725498  0.39159679  0.22893977    -0.60700
H331        H  0.97931138  0.37062938  0.23276223     0.43300
H332        H  0.80190500  0.30267716  0.21627938     0.43300
C333        C  0.78260501  0.05031891  0.36469428    -0.05800
C334        C  0.77372915  0.02746084  0.34329966    -0.33200
C335        C  0.80580209  0.49695613  0.33528091     0.36000
C336        C  0.84251278  0.48628467  0.35269345    -0.06100
C337        C  0.84694310  0.00967142  0.37791871    -0.33100
C338        C  0.82024846  0.04105086  0.38176574     0.35900
H339        H  0.74563386  0.03348062  0.32970751     0.16300
O340        O  0.79657223  0.47757089  0.31279945    -0.60600
H341        H  0.87548135  0.00366769  0.39125264     0.16300
O342        O  0.83092747  0.06234118  0.40287055    -0.60700
H343        H  0.85432884  0.07858325  0.39433689     0.43300
H344        H  0.77993164  0.45574125  0.32163728     0.43300
C345        C  0.77399629  0.18984973  0.37056096    -0.05800
C346        C  0.79412252  0.20406443  0.34429996    -0.33200
C347        C  0.81456393  0.23881395  0.34125909     0.36000
C348        C  0.81479359  0.25997118  0.36470581    -0.06100
C349        C  0.79145070  0.24688509  0.39001240    -0.33100
C350        C  0.77198381  0.21204671  0.39324012     0.35900
H351        H  0.79507206  0.18765635  0.32636147     0.16300
O352        O  0.83568214  0.25083271  0.31583617    -0.60600
H353        H  0.79056840  0.26257291  0.40836151     0.16300
O354        O  0.75360930  0.19898283  0.41943743    -0.60700
H355        H  0.77680607  0.18349693  0.43041712     0.43300
H356        H  0.86496955  0.23843421  0.31781507     0.43300
C357        C  0.57701778  0.02833161  0.11521187    -0.05800
C358        C  0.54611820  0.02009127  0.13738425    -0.33200
C359        C  0.52458798  0.48947399  0.14555609     0.36000
C360        C  0.52041694  0.47073757  0.12102662    -0.06100
C361        C  0.54209413  0.48501856  0.09543246    -0.33100
C362        C  0.57012697  0.51513324  0.09474193     0.35900
H363        H  0.54510911  0.03579042  0.15572506     0.16300
O364        O  0.49125224  0.98158462  0.16072856    -0.60600
H365        H  0.53933100  0.47116879  0.07627983     0.16300
O366        O  0.59234351  0.52631262  0.06960963    -0.60700
H367        H  0.57349665  0.54629871  0.05871931     0.43300
H368        H  0.46553708  0.99896775  0.15690936     0.43300
C369        C  0.58631349  0.26052833  0.11570711    -0.05800
C370        C  0.55104666  0.25861002  0.13494984    -0.33200
C371        C  0.52750046  0.29146560  0.14010412     0.36000
C372        C  0.53990827  0.32758185  0.12680236    -0.06100
C373        C  0.57610991  0.32920546  0.10808696    -0.33100
C374        C  0.59912219  0.29633811  0.10264241     0.35900
H375        H  0.54060861  0.23141184  0.14524503     0.16300
O376        O  0.49189561  0.28788667  0.15799710    -0.60600
H377        H  0.58645201  0.35555901  0.09656722     0.16300
O378        O  0.63406899  0.29968693  0.08418705    -0.60700
H379        H  0.65942621  0.30060683  0.09682774     0.43300
H380        H  0.46807420  0.28153697  0.14570128     0.43300
C381        C  0.68254896  0.11523546  0.99986826    -0.05800
C382        C  0.71928924  0.09288201  0.49460123    -0.33200
C383        C  0.73230682  0.09136784  0.46595798     0.36000
C384        C  0.70644804  0.10935821  0.44286519    -0.06100
C385        C  0.66764865  0.12831980  0.44918276    -0.33100
C386        C  0.65532082  0.13062801  0.47782177     0.35900
H387        H  0.74151280  0.08239214  0.01071650     0.16300
O388        O  0.77158464  0.07408347  0.46095592    -0.60600
H389        H  0.64693448  0.14173749  0.43191635     0.16300
O390        O  0.61812121  0.15083662  0.48324277    -0.60700
H391        H  0.59531552  0.13194251  0.48612535     0.43300
H392        H  0.79208785  0.09486934  0.45736743     0.43300
C393        C  0.79889715  0.42437293  0.11425327    -0.05800
C394        C  0.75471239  0.42511925  0.12167809    -0.33200
C395        C  0.73051188  0.45924527  0.12029108     0.36000
C396        C  0.74668549  0.99560274  0.11054098    -0.06100
C397        C  0.79014289  0.99364784  0.10154738    -0.33100
C398        C  0.81824254  0.45886166  0.10419519     0.35900
H399        H  0.73894381  0.39911163  0.12944494     0.16300
O400        O  0.68762790  0.45841553  0.12820989    -0.60600
H401        H  0.80617236  0.01925774  0.09306536     0.16300
O402        O  0.86058046  0.45909253  0.09507645    -0.60700
H403        H  0.87659736  0.46976414  0.11017025     0.43300
H404        H  0.67171117  0.45760563  0.10999545     0.43300
C405        C  0.75554307  0.22684533  0.09893861    -0.05800
C406        C  0.78230138  0.22074585  0.12328611    -0.33200
C407        C  0.81197889  0.24780079  0.12876822     0.36000
C408        C  0.81318703  0.28310541  0.11065744    -0.06100
C409        C  0.79075223  0.28643256  0.08426707    -0.33100
C410        C  0.76189849  0.25912714  0.07850825     0.35900
H411        H  0.78006439  0.19491446  0.13827070     0.16300
O412        O  0.84161324  0.23821873  0.15044440    -0.60600
H413        H  0.79344002  0.31159839  0.06865088     0.16300
O414        O  0.73832783  0.26546389  0.05349078    -0.60700
H415        H  0.71378017  0.28269896  0.05765310     0.43300
H416        H  0.82466686  0.23075604  0.16838312     0.43300
C417        C  0.55517862  0.08358795  0.34200670    -0.05800
C418        C  0.51513859  0.08065898  0.32894500    -0.33200
C419        C  0.49545489  0.04576850  0.33103482     0.36000
C420        C  0.51551972  0.01349398  0.34687221    -0.06100
C421        C  0.55604713  0.01628327  0.35933702    -0.33100
C422        C  0.57610308  0.05097636  0.35674995     0.35900
H423        H  0.49882202  0.10558224  0.31749783     0.16300
O424        O  0.45432805  0.54575156  0.32526296    -0.60600
H425        H  0.57133615  0.99180665  0.37207866     0.16300
O426        O  0.61517554  0.05305590  0.36988709    -0.60700
H427        H  0.60798888  0.06009817  0.38930361     0.43300
H428        H  0.45758246  0.54107568  0.30484655     0.43300
C429        C  0.56001033  0.22254505  0.35637875    -0.05800
C430        C  0.56493363  0.25870676  0.34062170    -0.33200
C431        C  0.53733032  0.28930778  0.34527677     0.36000
C432        C  0.50526343  0.28511369  0.36701091    -0.06100
C433        C  0.50516107  0.25125561  0.38617222    -0.33100
C434        C  0.53284350  0.22018627  0.38127866     0.35900
H435        H  0.58912981  0.26353942  0.32376608     0.16300
O436        O  0.54042049  0.32298880  0.32741966    -0.60600
H437        H  0.48152846  0.24786431  0.40359062     0.16300
O438        O  0.53277019  0.18759407  0.40062274    -0.60700
H439        H  0.50291521  0.17846816  0.40065133     0.43300
H440        H  0.52728865  0.31889535  0.30885297     0.43300
C441        C  0.62662033  0.15869456  0.27384405    -0.05800
C442        C  0.66453049  0.13803777  0.26795683    -0.33200
C443        C  0.67457104  0.13142860  0.23979122     0.36000
C444        C  0.64688252  0.14602507  0.21707122    -0.06100
C445        C  0.61016431  0.16815485  0.22245862    -0.33100
C446        C  0.59958772  0.17437840  0.25069466     0.35900
H447        H  0.68609812  0.12637677  0.28529921     0.16300
O448        O  0.71087920  0.10985409  0.23472637    -0.60600
H449        H  0.58843177  0.17893835  0.20495165     0.16300
O450        O  0.56100030  0.19288067  0.25559929    -0.60700
H451        H  0.56492147  0.21972203  0.24760992     0.43300
H452        H  0.73430505  0.12805553  0.23090141     0.43300
C453        C  0.08784453  0.23638133  0.10285995    -0.05800
C454        C  0.09128585  0.26095803  0.12372637    -0.33200
C455        C  0.06631939  0.29502009  0.12193657     0.36000
C456        C  0.03678597  0.30522199  0.09890777    -0.06100
C457        C  0.03064507  0.27874860  0.07972077    -0.33100
C458        C  0.05575277  0.24488925  0.08145088     0.35900
H459        H  0.11517942  0.25489987  0.14067175     0.16300
O460        O  0.07055037  0.31769534  0.14319602    -0.60600
H461        H  0.00759995  0.28469834  0.06239909     0.16300
O462        O  0.04984267  0.22110700  0.06118548    -0.60700
H463        H  0.03069553  0.20146112  0.07070819     0.43300
H464        H  0.10058128  0.32654784  0.14133562     0.43300
C465        C  0.02835570  0.44660787  0.10096470    -0.05800
C466        C  0.05906369  0.46308137  0.08086706    -0.33200
C467        C  0.03795100  0.01651646  0.09354065     0.36000
C468        C  0.07058343  0.01230023  0.11467441    -0.06100
C469        C  0.04993018  0.49065164  0.13376091    -0.33100
C470        C  0.02601256  0.45963554  0.12839546     0.35900
H471        H  0.06566238  0.45166475  0.06084192     0.16300
O472        O  0.02975143  0.05086676  0.07709158    -0.60600
H473        H  0.04708252  0.50045241  0.15473074     0.16300
O474        O  0.00186163  0.44173356  0.15058118    -0.60700
H475        H  0.02012187  0.41957923  0.15896467     0.43300
H476        H  0.03327983  0.04627362  0.05668608     0.43300
C477        C  0.95401959  0.37595918  0.46340153    -0.05800
C478        C  0.93739585  0.40735523  0.47573365    -0.33200
C479        C  0.94134773  0.41116992  0.00611104     0.36000
C480        C  0.96445659  0.38125524  0.02300576    -0.06100
C481        C  0.97984552  0.35033611  0.00987415    -0.33100
C482        C  0.97578227  0.34618258  0.48142197     0.35900
H483        H  0.92005646  0.43024546  0.46250176     0.16300
O484        O  0.92469096  0.44151010  0.01840169    -0.60600
H485        H  0.99851761  0.32763297  0.02219687     0.16300
O486        O  0.99309596  0.31503506  0.47044626    -0.60700
H487        H  0.02311769  0.32152035  0.46463760     0.43300
H488        H  0.89666139  0.43327206  0.02714484     0.43300
C489        C  0.00062924  0.41070554  0.59433516     0.86200
C490        C  0.95645781  0.40226074  0.60902848    -0.54100
C491        C  0.93693764  0.37119877  0.60117224     0.09100
C492        C  0.96461265  0.35119184  0.57941090     0.20000
C493        C  0.02801797  0.37350537  0.60085461    -0.54800
C494        C  0.00891102  0.34186048  0.59422026     0.09200
C495        C  0.99193531  0.41300185  0.56177914    -0.54300
C496        C  0.97292785  0.38235379  0.55391433     0.09800
H497        H  0.94238959  0.41996631  0.62409112     0.14300
H498        H  0.94983014  0.32646834  0.57229826     0.00000
H499        H  0.06099923  0.37274749  0.60835810     0.14600
H500        H  0.00185431  0.43597715  0.54572542     0.14400
C501        C  0.57937773  0.19015564  0.84638812     0.86200
C502        C  0.55112495  0.15526575  0.84918436    -0.54100
C503        C  0.57126228  0.12409610  0.84044279     0.09100
C504        C  0.61688126  0.13031919  0.82851013     0.20000
C505        C  0.62172866  0.17621689  0.86210775    -0.54800
C506        C  0.64199791  0.14484246  0.85262451     0.09200
C507        C  0.59208612  0.19550592  0.81395167    -0.54300
C508        C  0.61132336  0.16413369  0.80463111     0.09800
H509        H  0.51786695  0.15501295  0.85680985     0.14300
H510        H  0.63111983  0.10456369  0.82073769     0.00000
H511        H  0.63388083  0.19094126  0.87892404     0.14600
H512        H  0.58536048  0.22121838  0.79930969     0.14400
O513        O  0.64457958  0.10110950  0.68565024    -0.81200
O514        O  0.67730470  0.09679901  0.55172238    -0.65900
O515        O  0.68691551  0.11049034  0.63108908    -1.12500
C516        C  0.60583031  0.22489158  0.60848701     1.05700
O517        O  0.66594451  0.15713044  0.53240197    -0.79100
O518        O  0.70309675  0.19653511  0.57096191    -0.66700
Ni519      Ni  0.67328765  0.06953375  0.66035971     1.34900
C520        C  0.71598972  0.20090446  0.59601711     0.84400
O521        O  0.72281026  0.05993158  0.59580039    -0.79600
O522        O  0.70210915  0.03268612  0.63966957    -0.89900
C523        C  0.67409006  0.12258063  0.53018074     0.84000
O524        O  0.61865527  0.05988915  0.64482417    -0.68100
O525        O  0.62318889  0.22500459  0.58369262    -0.87400
C526        C  0.61089302  0.05423051  0.61911896     0.84800
C527        C  0.72279532  0.03190517  0.61597007     1.06400
H528        H  0.61067361  0.13582453  0.58864348     0.38200
O529        O  0.63956810  0.14472546  0.58999972    -1.10100
O530        O  0.69649330  0.18716654  0.61925579    -0.66700
Ni531      Ni  0.64839410  0.15376655  0.62892428     1.26300
O532        O  0.63456866  0.06721661  0.59774439    -0.66900
O533        O  0.60787063  0.19585900  0.62732936    -0.79200
C534        C  0.64888395  0.13550750  0.68874234     0.84200
O535        O  0.65787814  0.16035540  0.66787272    -0.66400
Ni536      Ni  0.64548995  0.18761933  0.56062099     1.27400
Ni537      Ni  0.68137968  0.10232466  0.59178492     1.26100
H538        H  0.71608675  0.11760619  0.63416921     0.38700
C539        C  0.75027332  0.08513237  0.86920942     0.86200
C540        C  0.70612117  0.09621661  0.85417362    -0.54100
C541        C  0.68463689  0.12717276  0.86383416     0.09100
C542        C  0.70986997  0.14328671  0.88727000     0.20000
C543        C  0.77507734  0.12192434  0.86397086    -0.54800
C544        C  0.75406233  0.15230866  0.87334178     0.09200
C545        C  0.73820843  0.07943732  0.90140349    -0.54300
C546        C  0.71822218  0.10983118  0.91115222     0.09800
H547        H  0.69353857  0.08118263  0.83769216     0.14300
H548        H  0.69402528  0.16797526  0.89542155     0.00000
H549        H  0.80679944  0.12364282  0.85371255     0.14600
H550        H  0.74466150  0.05287593  0.91524437     0.14400
O551        O  0.89702801  0.40532044  0.78016954    -0.81200
O552        O  0.93049271  0.40507347  0.91430435    -0.65900
O553        O  0.93800872  0.39136149  0.83399079    -1.12500
C554        C  0.83835448  0.29433512  0.86584997     1.05700
O555        O  0.94064438  0.34373402  0.92460460    -0.79100
O556        O  0.93159329  0.28966653  0.89186005    -0.66700
Ni557      Ni  0.92910531  0.43360577  0.80462885     1.34900
C558        C  0.95273365  0.28982562  0.86838361     0.84400
O559        O  0.97784390  0.43652693  0.86914245    -0.79600
O560        O  0.96300350  0.46633081  0.82479045    -0.89900
C561        C  0.93983118  0.37617335  0.93260867     0.84000
O562        O  0.87601417  0.45242574  0.82013021    -0.68100
O563        O  0.84491797  0.30250184  0.89117872    -0.87400
C564        C  0.86839404  0.45820629  0.84604201     0.84800
C565        C  0.98306535  0.46361114  0.84882352     1.06400
H566        H  0.86255912  0.37658129  0.87665926     0.38200
O567        O  0.89056655  0.36375215  0.87571635    -1.10100
O568        O  0.94529292  0.31439878  0.84626301    -0.66700
Ni569      Ni  0.89756741  0.35139951  0.83752296     1.26300
O570        O  0.89014389  0.44133089  0.86745160    -0.66900
O571        O  0.85720028  0.31059859  0.84307829    -0.79200
C572        C  0.89797595  0.37043106  0.77685676     0.84200
O573        O  0.90396917  0.34395802  0.79779769    -0.66400
Ni574      Ni  0.89236826  0.32443486  0.90711488     1.27400
Ni575      Ni  0.93391813  0.40040258  0.87342309     1.26100
H576        H  0.96672327  0.38080645  0.83087364     0.38700
C577        C  0.83054019  0.31767581  0.61930181     0.86200
C578        C  0.80257351  0.35438598  0.61206869    -0.54100
C579        C  0.82038629  0.38614878  0.61922086     0.09100
C580        C  0.86489093  0.37826354  0.63370925     0.20000
C581        C  0.87450382  0.32654134  0.60478394    -0.54800
C582        C  0.89324956  0.35816686  0.61227199     0.09200
C583        C  0.83884057  0.31617398  0.65193470    -0.54300
C584        C  0.85685616  0.34756521  0.65970788     0.09800
H585        H  0.77052035  0.35516981  0.60276075     0.14300
H586        H  0.87810528  0.40410393  0.64020190     0.00000
H587        H  0.88895378  0.30846428  0.59014294     0.14600
H588        H  0.83071094  0.29266704  0.66777755     0.14400
C589        C  0.50744325  0.36171018  0.63227612     0.86200
C590        C  0.46255806  0.35896079  0.61986970    -0.54100
C591        C  0.43469646  0.38856924  0.62301364     0.09100
C592        C  0.45481505  0.41958839  0.63850965     0.20000
C593        C  0.52368591  0.40016241  0.61808216    -0.54800
C594        C  0.49712491  0.43084979  0.62162671     0.09200
C595        C  0.49948061  0.36810621  0.66395799    -0.54300
C596        C  0.47157354  0.39800952  0.66745467     0.09800
H597        H  0.45312989  0.33478105  0.60984914     0.14300
H598        H  0.43222849  0.44393460  0.64093302     0.00000
H599        H  0.55640088  0.40372968  0.60981492     0.14600
H600        H  0.51512836  0.35086209  0.68213402     0.14400
C601        C  0.07974518  0.08861324  0.87390194     0.86200
C602        C  0.05008359  0.12438842  0.86745195    -0.54100
C603        C  0.06729532  0.15650941  0.87446119     0.09100
C604        C  0.11284545  0.14987242  0.88775802     0.20000
C605        C  0.12246762  0.09881100  0.85820392    -0.54800
C606        C  0.14047072  0.13083968  0.86532857     0.09200
C607        C  0.09006652  0.08702708  0.90627038    -0.54300
C608        C  0.10774068  0.11856611  0.91362093     0.09800
H609        H  0.01760446  0.12417164  0.85894157     0.14300
H610        H  0.12548954  0.17609037  0.89396446     0.00000
H611        H  0.13695250  0.08113261  0.84328323     0.14600
H612        H  0.08367321  0.06351641  0.92267282     0.14400
O613        O  0.16020755  0.16009888  0.53398361    -0.81200
O614        O  0.17961740  0.15655154  0.67057990    -0.65900
O615        O  0.18812519  0.14390964  0.59049847    -1.12500
C616        C  0.09800960  0.04042026  0.61992764     1.05700
O617        O  0.19621097  0.09596017  0.68321000    -0.79100
O618        O  0.20766033  0.05074940  0.64165519    -0.66700
Ni619      Ni  0.17843529  0.18836438  0.56316437     1.34900
C620        C  0.21439553  0.04873800  0.61498364     0.84400
O621        O  0.22565731  0.19073134  0.62688494    -0.79600
O622        O  0.19815585  0.22378573  0.58738991    -0.89900
C623        C  0.19216284  0.12953065  0.68949712     0.84000
O624        O  0.12089107  0.19416687  0.57703162    -0.68100
O625        O  0.12002912  0.03789807  0.64314617    -0.87400
C626        C  0.11245912  0.20259944  0.60218216     0.84800
C627        C  0.22157123  0.22133869  0.60976094     1.06400
H628        H  0.11600920  0.12201375  0.63841148     0.38200
O629        O  0.14432381  0.11225377  0.63351198    -1.10100
O630        O  0.19038447  0.06659817  0.59526825    -0.66700
Ni631      Ni  0.14454805  0.10568805  0.59367365     1.26300
O632        O  0.13617043  0.18998871  0.62407401    -0.66900
O633        O  0.10167219  0.06757747  0.59925887    -0.79200
C634        C  0.14825341  0.12717983  0.53158306     0.84200
O635        O  0.14276615  0.10186010  0.55306636    -0.66400
Ni636      Ni  0.15811184  0.06913974  0.66127969     1.27400
Ni637      Ni  0.18408731  0.15187653  0.63033278     1.26100
H638        H  0.21638244  0.13287603  0.58684489     0.38700
C639        C  0.24871590  0.18167111  0.85028667     0.86200
C640        C  0.20300812  0.17475220  0.86252706    -0.54100
C641        C  0.18372932  0.14418216  0.85401882     0.09100
C642        C  0.21242012  0.12390344  0.83291346     0.20000
C643        C  0.27407633  0.14349080  0.85789607    -0.54800
C644        C  0.25515823  0.11358608  0.84868904     0.09200
C645        C  0.24344938  0.18481926  0.81709821    -0.54300
C646        C  0.22405266  0.15476130  0.80796517     0.09800
H647        H  0.18800729  0.19298138  0.87683974     0.14300
H648        H  0.19815340  0.09912048  0.82541249     0.00000
H649        H  0.30595708  0.14002230  0.86740231     0.14600
H650        H  0.25582134  0.20792552  0.80215422     0.14400
O651        O  0.44081938  0.37645508  0.79709486    -0.81200
O652        O  0.40537054  0.35901847  0.92983818    -0.65900
O653        O  0.39208910  0.38252870  0.84689847    -1.12500
C654        C  0.48616829  0.48134064  0.85980770     1.05700
O655        O  0.39047116  0.41954920  0.92870651    -0.79100
O656        O  0.39466705  0.47938968  0.88939290    -0.66700
Ni657      Ni  0.39958162  0.34728243  0.82053933     1.34900
C658        C  0.37274621  0.48058603  0.86654174     0.84400
O659        O  0.35900442  0.32663065  0.88901655    -0.79600
O660        O  0.35863379  0.31622054  0.84208944    -0.89900
C661        C  0.39665971  0.38745093  0.94336908     0.84000
O662        O  0.44673672  0.31858252  0.83889917    -0.68100
O663        O  0.48182569  0.47151964  0.88704789    -0.87400
C664        C  0.46317856  0.31418132  0.86390103     0.84800
C665        C  0.34541616  0.30983347  0.86825655     1.06400
H666        H  0.46853959  0.39687998  0.88411300     0.38200
O667        O  0.43949119  0.40786969  0.88256893    -1.10100
O668        O  0.38045370  0.45805955  0.84790375    -0.66700
Ni669      Ni  0.42957549  0.42404975  0.84264795     1.26300
O670        O  0.44802734  0.33080061  0.88474615    -0.66900
O671        O  0.46711966  0.46590920  0.84051335    -0.79200
C672        C  0.43403921  0.41046702  0.78586324     0.84200
O673        O  0.42096467  0.43537076  0.80143313    -0.66400
Ni674      Ni  0.43665656  0.44449189  0.90806371     1.27400
Ni675      Ni  0.39962478  0.36727657  0.88755691     1.26100
H676        H  0.36267538  0.39249780  0.84436099     0.38700
C677        C  0.32094623  0.35575715  0.60783195     0.86200
C678        C  0.36354169  0.35727720  0.62460236    -0.54100
C679        C  0.38875646  0.38713199  0.61412479     0.09100
C680        C  0.36918652  0.41235824  0.58760503     0.20000
C681        C  0.29914948  0.39483811  0.60884616    -0.54800
C682        C  0.32356678  0.42444346  0.59800735     0.09200
C683        C  0.33590391  0.35551148  0.57653020    -0.54300
C684        C  0.36144347  0.38414061  0.56565665     0.09800
H685        H  0.37418876  0.33626686  0.64231744     0.14300
H686        H  0.38966455  0.43623946  0.57915825     0.00000
H687        H  0.26685109  0.39893043  0.61763837     0.14600
H688        H  0.32677204  0.33374775  0.56381329     0.14400
C689        C  0.39228233  0.38578157  0.97557879    -0.05800
C690        C  0.38118747  0.41977549  0.98697815    -0.32400
C691        C  0.37723821  0.41905638  0.51620541     0.36000
C692        C  0.37899861  0.38543408  0.53549833    -0.06100
C693        C  0.39217470  0.35146899  0.52474381    -0.33100
C694        C  0.39867137  0.35252992  0.99518695     0.35900
H695        H  0.37656018  0.44618980  0.97275994     0.16300
O696        O  0.36412247  0.45260515  0.52544333    -0.60600
H697        H  0.39481993  0.32520544  0.53935602     0.16300
O698        O  0.41139733  0.31911981  0.98557231    -0.60700
H699        H  0.38468851  0.30469014  0.98554759     0.43300
H700        H  0.38725274  0.46824392  0.02715416     0.43300
C701        C  0.31317528  0.28028009  0.87315461    -0.05800
C702        C  0.27584986  0.28474577  0.85602984    -0.33200
C703        C  0.25339808  0.25332984  0.85006563     0.36000
C704        C  0.26881387  0.21627686  0.86066063    -0.06100
C705        C  0.30307339  0.21255557  0.88084083    -0.33100
C706        C  0.32526226  0.24408788  0.88686270     0.35900
H707        H  0.26593846  0.31259306  0.84539543     0.16300
O708        O  0.21728941  0.25906940  0.83297879    -0.60600
H709        H  0.31391175  0.18535261  0.89180130     0.16300
O710        O  0.36144449  0.23874552  0.90382335    -0.60700
H711        H  0.35049710  0.23795661  0.92397166     0.43300
H712        H  0.22778179  0.26942777  0.81342779     0.43300
C713        C  0.27802623  0.07627527  0.84988241    -0.05800
C714        C  0.30466887  0.06859883  0.82661827    -0.33200
C715        C  0.33183927  0.03596233  0.82884027     0.36000
C716        C  0.33346485  0.01102445  0.85493027    -0.06100
C717        C  0.30545623  0.01811953  0.87782653    -0.33100
C718        C  0.27753066  0.05028283  0.87529217     0.35900
H719        H  0.30613463  0.08898563  0.80724092     0.16300
O720        O  0.35978417  0.03081130  0.80651141    -0.60600
H721        H  0.32972606  0.51455657  0.90762049     0.16300
O722        O  0.25196707  0.05730954  0.89839978    -0.60700
H723        H  0.22237163  0.05088656  0.89334946     0.43300
H724        H  0.34522421  0.01345100  0.79520103     0.43300
C725        C  0.21829096  0.14996205  0.77696334    -0.05800
C726        C  0.22609154  0.11403331  0.76854045    -0.33200
C727        C  0.21948879  0.10742711  0.74011819     0.36000
C728        C  0.20343384  0.13688894  0.71919453    -0.06100
C729        C  0.19667952  0.17325254  0.72738348    -0.33100
C730        C  0.20404504  0.17992060  0.75591863     0.35900
H731        H  0.23756920  0.09058947  0.78403631     0.16300
O732        O  0.22819598  0.07165990  0.73334355    -0.60600
H733        H  0.18473569  0.19651378  0.71181044     0.16300
O734        O  0.19585686  0.21553526  0.76310699    -0.60700
H735        H  0.16551687  0.21565563  0.77024311     0.43300
H736        H  0.25948151  0.07082379  0.72840808     0.43300
C737        C  0.24332499  0.25609520  0.61531531    -0.05800
C738        C  0.22745247  0.29102132  0.60123383    -0.33200
C739        C  0.25055049  0.32377433  0.60093548     0.36000
C740        C  0.29055668  0.32286731  0.61560475    -0.06100
C741        C  0.30442483  0.28843391  0.63203712    -0.33100
C742        C  0.28102582  0.25535155  0.63208359     0.35900
H743        H  0.19781719  0.29280032  0.58889946     0.16300
O744        O  0.23486084  0.35616440  0.58450518    -0.60600
H745        H  0.33481740  0.28601784  0.64335380     0.16300
O746        O  0.29726517  0.22198288  0.64671198    -0.60700
H747        H  0.28602134  0.22145737  0.66677511     0.43300
H748        H  0.24329428  0.35347008  0.56426496     0.43300
C749        C  0.30551597  0.46363260  0.59784637    -0.05800
C750        C  0.31236701  0.48260369  0.62175060    -0.33200
C751        C  0.28529934  0.01115171  0.62545245     0.36000
C752        C  0.25018751  0.02268874  0.60675508    -0.06100
C753        C  0.24489798  0.50774308  0.58385865    -0.33100
C754        C  0.27248676  0.47733145  0.57829575     0.35900
H755        H  0.33744751  0.47216960  0.63709890     0.16300
O756        O  0.29158869  0.02844715  0.64953189    -0.60600
H757        H  0.22055612  0.01407003  0.56649330     0.16300
O758        O  0.26432431  0.45878151  0.55514982    -0.60700
H759        H  0.27716278  0.47432420  0.53818498     0.43300
H760        H  0.28097476  0.01068132  0.66607533     0.43300
C761        C  0.12060716  0.12080571  0.94398300    -0.05800
C762        C  0.09473062  0.10441408  0.96706190    -0.33200
C763        C  0.10715213  0.10397419  0.99584517     0.36000
C764        C  0.14042683  0.11946531  0.50190237    -0.06100
C765        C  0.17155694  0.13688363  0.97915984    -0.33100
C766        C  0.15960135  0.13676041  0.95034275     0.35900
H767        H  0.06432369  0.09227569  0.96285274     0.16300
O768        O  0.07096226  0.09364138  0.51485053    -0.60600
H769        H  0.20129516  0.14997846  0.98360766     0.16300
O770        O  0.18715662  0.15091563  0.92868109    -0.60700
H771        H  0.18681097  0.17857267  0.92937127     0.43300
H772        H  0.08944671  0.06160880  0.02118624     0.43300
C773        C  0.44399279  0.41948857  0.75476585    -0.05800
C774        C  0.41033961  0.42221532  0.73459023    -0.33200
C775        C  0.41890170  0.41728638  0.70556621     0.36000
C776        C  0.46159097  0.40921640  0.69658460    -0.06100
C777        C  0.49538384  0.40927986  0.71641876    -0.33100
C778        C  0.48684204  0.41418091  0.74522404     0.35900
H779        H  0.37707685  0.42503986  0.74182772     0.16300
O780        O  0.38498841  0.41637426  0.68707821    -0.60600
H781        H  0.52853321  0.40389273  0.70984008     0.16300
O782        O  0.52030797  0.41037960  0.76453207    -0.60700
H783        H  0.52825794  0.43659133  0.76627124     0.43300
H784        H  0.37498404  0.44313934  0.68194770     0.43300
C785        C  0.01295826  0.99029114  0.85338784    -0.05800
C786        C  0.01635349  0.02254494  0.83266278    -0.33200
C787        C  0.04026352  0.05325257  0.83829056     0.36000
C788        C  0.06034314  0.05278499  0.86539701    -0.06100
C789        C  0.06122683  0.01846047  0.88438734    -0.33100
C790        C  0.03752986  0.98788546  0.87885076     0.35900
H791        H  0.99919964  0.02467565  0.81237825     0.16300
O792        O  0.04208072  0.08430033  0.81758272    -0.60600
H793        H  0.08029126  0.01431581  0.90378911     0.16300
O794        O  0.04145622  0.45801740  0.89753149    -0.60700
H795        H  0.06263196  0.94001568  0.89349505     0.43300
H796        H  0.06895087  0.08019209  0.80639988     0.43300
C797        C  0.98686382  0.25920626  0.86784995    -0.05800
C798        C  0.00736190  0.24452294  0.89400405    -0.33200
C799        C  0.03489938  0.21217222  0.89600388     0.36000
C800        C  0.04227780  0.19334862  0.87169748    -0.06100
C801        C  0.02300262  0.20846341  0.84523941    -0.33100
C802        C  0.99572390  0.24127790  0.84313419     0.35900
H803        H  0.00096126  0.25757313  0.91339115     0.16300
O804        O  0.05150894  0.19740168  0.92244293    -0.60600
H805        H  0.02839971  0.19427196  0.82630432     0.16300
O806        O  0.97644219  0.25443286  0.81722025    -0.60700
H807        H  0.94827096  0.24205179  0.81787450     0.43300
H808        H  0.07680700  0.21270143  0.92513530     0.43300
C809        C  0.88985049  0.36132336  0.74752782    -0.05800
C810        C  0.85409828  0.34043969  0.74252254    -0.33200
C811        C  0.84255517  0.33582290  0.71422886     0.36000
C812        C  0.86780067  0.35151699  0.69030143    -0.06100
C813        C  0.90428624  0.37161123  0.69566503    -0.33100
C814        C  0.91505849  0.37689170  0.72387757     0.35900
H815        H  0.83378619  0.32921037  0.76050720     0.16300
O816        O  0.80474599  0.31850558  0.71022420    -0.60600
H817        H  0.92476435  0.38333011  0.67796527     0.16300
O818        O  0.95007759  0.39777813  0.72813904    -0.60700
H819        H  0.97548710  0.37991030  0.72817726     0.43300
H820        H  0.80999917  0.29154475  0.71822893     0.43300
C821        C  0.77897072  0.05123548  0.86223149    -0.05800
C822        C  0.76921958  0.02837827  0.84094187    -0.33200
C823        C  0.79707461  0.49629763  0.83569841     0.36000
C824        C  0.83575712  0.48832903  0.85156993    -0.06100
C825        C  0.84345780  0.01031423  0.87445042    -0.33100
C826        C  0.81731275  0.04192424  0.87853422     0.35900
H827        H  0.74067920  0.03455052  0.82777997     0.16300
O828        O  0.78603125  0.47393381  0.81546203    -0.60600
H829        H  0.87241554  0.00427416  0.88736468     0.16300
O830        O  0.82930840  0.06345488  0.89915305    -0.60700
H831        H  0.85287344  0.07910888  0.89010036     0.43300
H832        H  0.76962190  0.45325261  0.82634798     0.43300
C833        C  0.77184053  0.19066996  0.86985036    -0.05800
C834        C  0.79280339  0.20510370  0.84396811    -0.33200
C835        C  0.81207324  0.24037616  0.84114549     0.36000
C836        C  0.80992383  0.26208253  0.86432302    -0.06100
C837        C  0.78634240  0.24842728  0.88935544    -0.33100
C838        C  0.76849747  0.21291419  0.89251722     0.35900
H839        H  0.79513047  0.18860370  0.82610087     0.16300
O840        O  0.83428778  0.25246207  0.81617834    -0.60600
H841        H  0.78402240  0.26425827  0.90760775     0.16300
O842        O  0.75031257  0.19939813  0.91867552    -0.60700
H843        H  0.77330182  0.18310876  0.92921356     0.43300
H844        H  0.86382430  0.24078099  0.81902592     0.43300
C845        C  0.57492215  0.02904337  0.61451268    -0.05800
C846        C  0.54276794  0.02181512  0.63597448    -0.33200
C847        C  0.51684646  0.49122514  0.64089627     0.36000
C848        C  0.51610328  0.46941565  0.61784068    -0.06100
C849        C  0.54158724  0.48081005  0.59314904    -0.33100
C850        C  0.57012891  0.51068391  0.59240039     0.35900
H851        H  0.54097345  0.03802101  0.65402351     0.16300
O852        O  0.48634950  0.98440817  0.65843795    -0.60600
H853        H  0.54134208  0.46487455  0.57495560     0.16300
O854        O  0.59603277  0.51883178  0.56846549    -0.60700
H855        H  0.58036847  0.53974049  0.55616769     0.43300
H856        H  0.46035420  0.00095203  0.65316145     0.43300
C857        C  0.58278388  0.26010091  0.61545971    -0.05800
C858        C  0.55401672  0.25875386  0.63911412    -0.33200
C859        C  0.53026760  0.29120460  0.64509587     0.36000
C860        C  0.53613255  0.32667879  0.62805091    -0.06100
C861        C  0.56490196  0.32762645  0.60430790    -0.33100
C862        C  0.58837910  0.29526300  0.59826519     0.35900
H863        H  0.54876162  0.23213355  0.65258794     0.16300
O864        O  0.50075745  0.28753989  0.66740611    -0.60600
H865        H  0.56857253  0.35312830  0.58932679     0.16300
O866        O  0.61623145  0.29844560  0.57500697    -0.60700
H867        H  0.64191368  0.31059667  0.58155775     0.43300
H868        H  0.47310564  0.28233018  0.65848404     0.43300
C869        C  0.68164367  0.11342975  0.50072560    -0.05800
C870        C  0.72007323  0.09470718  0.99347594    -0.33200
C871        C  0.73221213  0.09267621  0.96473821     0.36000
C872        C  0.70561945  0.11019763  0.94190206    -0.06100
C873        C  0.66703987  0.12930065  0.94854704    -0.33100
C874        C  0.65563814  0.13219482  0.97724008     0.35900
H875        H  0.74027525  0.08029015  0.51201226     0.16300
O876        O  0.77127705  0.07530194  0.95934107    -0.60600
H877        H  0.64581593  0.14243615  0.93147379     0.16300
O878        O  0.61878216  0.15270938  0.98293993    -0.60700
H879        H  0.59693233  0.13364986  0.98914589     0.43300
H880        H  0.79197557  0.09596437  0.95606266     0.43300
C881        C  0.79595814  0.42338418  0.61626472    -0.05800
C882        C  0.75216077  0.42436694  0.62450857    -0.33200
C883        C  0.72808448  0.45850830  0.62286713     0.36000
C884        C  0.74607359  0.99564856  0.61259061    -0.06100
C885        C  0.78997922  0.99422420  0.60460253    -0.33100
C886        C  0.81524199  0.45764827  0.60545607     0.35900
H887        H  0.73659736  0.39850391  0.63297555     0.16300
O888        O  0.68557410  0.45789672  0.63168798    -0.60600
H889        H  0.80647096  0.02020948  0.59802826     0.16300
O890        O  0.85739984  0.45757705  0.59595911    -0.60700
H891        H  0.87384803  0.46822383  0.61086798     0.43300
H892        H  0.66870624  0.45763984  0.61378384     0.43300
C893        C  0.75259450  0.22606943  0.59820696    -0.05800
C894        C  0.78151155  0.21905045  0.62135397    -0.33200
C895        C  0.81075511  0.24643653  0.62682791     0.36000
C896        C  0.80936210  0.28273454  0.61002369    -0.06100
C897        C  0.78471938  0.28717372  0.58448561    -0.33100
C898        C  0.75629725  0.25961468  0.57871376     0.35900
H899        H  0.78115986  0.19233983  0.63545813     0.16300
O900        O  0.84215386  0.23654925  0.64729623    -0.60600
H901        H  0.78549677  0.31317831  0.56959952     0.16300
O902        O  0.73043502  0.26690238  0.55478280    -0.60700
H903        H  0.70426115  0.28043453  0.56128352     0.43300
H904        H  0.82673899  0.22757446  0.66558151     0.43300
C905        C  0.55084754  0.08748681  0.84191215    -0.05800
C906        C  0.51260656  0.08465938  0.82675589    -0.33200
C907        C  0.49192240  0.05029611  0.82904909     0.36000
C908        C  0.50914193  0.01860796  0.84718000    -0.06100
C909        C  0.54804026  0.02132786  0.86171350    -0.33100
C910        C  0.56916002  0.05543917  0.85893113     0.35900
H911        H  0.49844609  0.10929652  0.81355431     0.16300
O912        O  0.45432362  0.54213453  0.81876545    -0.60600
H913        H  0.56119349  0.99728819  0.87606766     0.16300
O914        O  0.60666929  0.05759771  0.87388785    -0.60700
H915        H  0.59762504  0.06763333  0.89196270     0.43300
H916        H  0.46118118  0.53467677  0.79943348     0.43300
C917        C  0.55698217  0.22521786  0.85730235    -0.05800
C918        C  0.56341067  0.26181634  0.84270317    -0.33200
C919        C  0.53574899  0.29253489  0.84739333     0.36000
C920        C  0.50145924  0.28762688  0.86751677    -0.06100
C921        C  0.49930851  0.25301593  0.88553410    -0.33100
C922        C  0.52739302  0.22210474  0.88101549     0.35900
H923        H  0.58881803  0.26672725  0.82665589     0.16300
O924        O  0.54130900  0.32715445  0.83130571    -0.60600
H925        H  0.47393944  0.24905137  0.90178042     0.16300
O926        O  0.52552813  0.18899366  0.89969821    -0.60700
H927        H  0.49530251  0.18085169  0.89913988     0.43300
H928        H  0.52888838  0.32531041  0.81207321     0.43300
C929        C  0.62283743  0.16108297  0.77408012    -0.05800
C930        C  0.65973477  0.13900956  0.76830916    -0.33200
C931        C  0.66885128  0.13114450  0.74034612     0.36000
C932        C  0.64180372  0.14648794  0.71748794    -0.06100
C933        C  0.60585726  0.16971145  0.72274227    -0.33100
C934        C  0.59576101  0.17664383  0.75094982     0.35900
H935        H  0.68115269  0.12702661  0.78563908     0.16300
O936        O  0.70356149  0.10750865  0.73565386    -0.60600
H937        H  0.58433330  0.18080368  0.70519853     0.16300
O938        O  0.55750975  0.19561653  0.75593009    -0.60700
H939        H  0.56181039  0.22237591  0.74790104     0.43300
H940        H  0.72788551  0.12441651  0.73042074     0.43300
C941        C  0.07825605  0.23257533  0.60470559    -0.05800
C942        C  0.08278232  0.25747241  0.62522640    -0.33200
C943        C  0.05924954  0.29225322  0.62292150     0.36000
C944        C  0.03015425  0.30283947  0.59973300    -0.06100
C945        C  0.02238836  0.27590923  0.58116984    -0.33100
C946        C  0.04605126  0.24130335  0.58342207     0.35900
H947        H  0.10669698  0.25119423  0.64213938     0.16300
O948        O  0.06453690  0.31535273  0.64377235    -0.60600
H949        H  0.99929989  0.28196674  0.56389122     0.16300
O950        O  0.03896027  0.21714760  0.56359943    -0.60700
H951        H  0.02201721  0.19658788  0.57416015     0.43300
H952        H  0.09485511  0.32344368  0.64166531     0.43300
C953        C  0.02187564  0.44607045  0.60287997    -0.05800
C954        C  0.01526607  0.48182331  0.58609577    -0.33200
C955        C  0.03515320  0.01275591  0.59615758     0.36000
C956        C  0.06816570  0.00919754  0.61697033    -0.06100
C957        C  0.07239791  0.47565140  0.63210486    -0.33100
C958        C  0.04866419  0.44427176  0.62742223     0.35900
H959        H  0.99156574  0.48579779  0.56901043     0.16300
O960        O  0.02583302  0.04687827  0.57970728    -0.60600
H961        H  0.09369572  0.47266709  0.65058597     0.16300
O962        O  0.05074566  0.41247571  0.64759872    -0.60700
H963        H  0.08149339  0.40333661  0.64809200     0.43300
H964        H  0.03356053  0.04310059  0.55958103     0.43300
C965        C  0.95015631  0.37894768  0.96331938    -0.05800
C966        C  0.93470956  0.41003108  0.97650228    -0.33200
C967        C  0.94200958  0.40914806  0.50537599     0.36000
C968        C  0.96394769  0.37947543  0.52316713    -0.06100
C969        C  0.98043567  0.34817010  0.51093824    -0.33100
C970        C  0.97300316  0.34892776  0.98045822     0.35900
H971        H  0.91650267  0.43305789  0.96403064     0.16300
O972        O  0.92486578  0.44002163  0.51677378    -0.60600
H973        H  0.99844425  0.32574117  0.52403986     0.16300
O974        O  0.98914143  0.31795419  0.96871640    -0.60700
H975        H  0.01787077  0.32520209  0.96060290     0.43300
H976        H  0.89681951  0.43192340  0.52557050     0.43300
C977        C  0.99718632  0.91483912  0.09719816     0.86200
C978        C  0.95337548  0.90595139  0.11236437    -0.54100
C979        C  0.93352323  0.87519288  0.10416948     0.09100
C980        C  0.96027726  0.85623595  0.08134311     0.20000
C981        C  0.02440359  0.87737081  0.10267667    -0.54800
C982        C  0.00475194  0.84623068  0.09565184     0.09200
C983        C  0.98748789  0.91841695  0.06469660    -0.54300
C984        C  0.96812151  0.88832962  0.05628358     0.09800
H985        H  0.94007986  0.92272938  0.12830198     0.14300
H986        H  0.94532569  0.83181907  0.07380631     0.00000
H987        H  0.05739845  0.87576999  0.11025438     0.14600
H988        H  0.99741185  0.94175690  0.04896794     0.14400
C989        C  0.58563582  0.68606982  0.34773747     0.86200
C990        C  0.55815415  0.65065497  0.35062390    -0.54100
C991        C  0.57864506  0.61969185  0.34156162     0.09100
C992        C  0.62420624  0.62686550  0.32935590     0.20000
C993        C  0.62831372  0.67263667  0.36323206    -0.54800
C994        C  0.64904960  0.64150349  0.35363377     0.09200
C995        C  0.59792851  0.69172657  0.31529995    -0.54300
C996        C  0.61793326  0.66097974  0.30573929     0.09800
H997        H  0.52508739  0.64988974  0.35857726     0.14300
H998        H  0.63920311  0.60170633  0.32109369     0.00000
H999        H  0.64027897  0.68745680  0.38005064     0.14600
H1000       H  0.59055595  0.71737604  0.30071030     0.14400
O1001       O  0.66281170  0.60080041  0.18823453    -0.81200
O1002       O  0.68000728  0.59275218  0.05250690    -0.65900
O1003       O  0.69274366  0.61053592  0.13081699    -1.12500
C1004       C  0.60545676  0.72080268  0.10493344     1.05700
O1005       O  0.67813765  0.65333514  0.03267584    -0.79100
O1006       O  0.70681292  0.69697899  0.07139970    -0.66700
Ni1007     Ni  0.68212379  0.56883565  0.16027405     1.34900
C1008       C  0.71707589  0.70211154  0.09682121     0.84400
O1009       O  0.72881292  0.55901807  0.09611285    -0.79600
O1010       O  0.70313560  0.53033068  0.13773528    -0.89900
C1011       C  0.68107802  0.61823822  0.03077756     0.84000
O1012       O  0.62437642  0.56444543  0.14745449    -0.68100
O1013       O  0.62383509  0.72066570  0.08045401    -0.87400
C1014       C  0.61518466  0.55605510  0.12261917     0.84800
C1015       C  0.72643334  0.53004904  0.11511880     1.06400
H1016       H  0.61577205  0.63299960  0.08706259     0.38200
O1017       O  0.64441785  0.64211661  0.08907126    -1.10100
O1018       O  0.69650215  0.68772672  0.11934137    -0.66700
Ni1019     Ni  0.65062216  0.65207951  0.12791495     1.26300
O1020       O  0.63933485  0.56538420  0.10049922    -0.66900
O1021       O  0.60774754  0.69249442  0.12452055    -0.79200
C1022       C  0.65749382  0.63601312  0.18928727     0.84200
O1023       O  0.65650291  0.66051654  0.16701836    -0.66400
Ni1024     Ni  0.65157089  0.68400209  0.05904154     1.27400
Ni1025     Ni  0.68626967  0.60039788  0.09193070     1.26100
H1026       H  0.72140995  0.61926181  0.13326697     0.38700
C1027       C  0.75766569  0.58227684  0.37096439     0.86200
C1028       C  0.71405531  0.59373283  0.35519643    -0.54100
C1029       C  0.69153732  0.62387040  0.36526551     0.09100
C1030       C  0.71521755  0.63895928  0.38983888     0.20000
C1031       C  0.78198129  0.61933575  0.36736640    -0.54800
C1032       C  0.75983484  0.64893885  0.37715620     0.09200
C1033       C  0.74434376  0.57506532  0.40295352    -0.54300
C1034       C  0.72307566  0.60469226  0.41300739     0.09800
H1035       H  0.70252379  0.57962005  0.33786998     0.14300
H1036       H  0.69853144  0.66291730  0.39851310     0.00000
H1037       H  0.81408826  0.62187891  0.35775523     0.14600
H1038       H  0.75132525  0.54839225  0.41654836     0.14400
O1039       O  0.89128384  0.90360602  0.28689011    -0.81200
O1040       O  0.93354408  0.90505570  0.41835435    -0.65900
O1041       O  0.93852487  0.88946525  0.33834639    -1.12500
C1042       C  0.84253205  0.79099208  0.37223001     1.05700
O1043       O  0.94573400  0.84410108  0.42906826    -0.79100
O1044       O  0.94001029  0.79003515  0.39640969    -0.66700
Ni1045     Ni  0.92950836  0.93048949  0.30815501     1.34900
C1046       C  0.95788520  0.79024673  0.37179954     0.84400
O1047       O  0.97952702  0.93612411  0.37205345    -0.79600
O1048       O  0.96836950  0.96112892  0.32576705    -0.89900
C1049       C  0.94291216  0.87656165  0.43696666     0.84000
O1050       O  0.88027414  0.95377957  0.32467322    -0.68100
O1051       O  0.85240849  0.79702938  0.39762663    -0.87400
C1052       C  0.87146494  0.95777883  0.35074249     0.84800
C1053       C  0.98721305  0.96029785  0.35002762     1.06400
H1054       H  0.86523004  0.87397180  0.38320742     0.38200
O1055       O  0.89336509  0.86173175  0.38124531    -1.10100
O1056       O  0.94613653  0.81318938  0.34969599    -0.66700
Ni1057     Ni  0.89808149  0.84978470  0.34269311     1.26300
O1058       O  0.89159386  0.93931995  0.37219337    -0.66900
O1059       O  0.85799782  0.80925909  0.34906298    -0.79200
C1060       C  0.89438149  0.86933638  0.28233327     0.84200
O1061       O  0.90229194  0.84249817  0.30268895    -0.66400
Ni1062     Ni  0.89857601  0.82207303  0.41251920     1.27400
Ni1063     Ni  0.93608285  0.89927863  0.37766449     1.26100
H1064       H  0.96707720  0.87870625  0.33505512     0.38700
C1065       C  0.82876310  0.81964060  0.12381639     0.86200
C1066       C  0.80043834  0.85598061  0.11612020    -0.54100
C1067       C  0.81789895  0.88813889  0.12278511     0.09100
C1068       C  0.86217096  0.88099475  0.13770233     0.20000
C1069       C  0.87272014  0.82879556  0.10931863    -0.54800
C1070       C  0.89083248  0.86095834  0.11636698     0.09200
C1071       C  0.83681934  0.81878619  0.15638106    -0.54300
C1072       C  0.85413673  0.85052517  0.16400761     0.09800
H1073       H  0.76880118  0.85631630  0.10625670     0.14300
H1074       H  0.87498213  0.90718520  0.14389835     0.00000
H1075       H  0.88748973  0.81070449  0.09480159     0.14600
H1076       H  0.82896510  0.79553730  0.17243219     0.14400
C1077       C  0.50947047  0.85904357  0.12669000     0.86200
C1078       C  0.46479029  0.85840405  0.11368634    -0.54100
C1079       C  0.43793001  0.88818305  0.11782888     0.09100
C1080       C  0.45886172  0.91748279  0.13460087     0.20000
C1081       C  0.52730033  0.89750892  0.11389777    -0.54800
C1082       C  0.50160666  0.92845387  0.11831658     0.09200
C1083       C  0.50133289  0.86363679  0.15864692    -0.54300
C1084       C  0.47486808  0.89411961  0.16309885     0.09800
H1085       H  0.45444990  0.83515765  0.10290781     0.14300
H1086       H  0.43699534  0.94208830  0.13743951     0.00000
H1087       H  0.56010348  0.90073594  0.10583509     0.14600
H1088       H  0.51596469  0.84455692  0.17627523     0.14400
C1089       C  0.08247713  0.59163865  0.37481007     0.86200
C1090       C  0.05529493  0.62868680  0.36766539    -0.54100
C1091       C  0.07455459  0.66005348  0.37431562     0.09100
C1092       C  0.11945650  0.65137975  0.38817340     0.20000
C1093       C  0.12617017  0.59910322  0.35960778    -0.54800
C1094       C  0.14623190  0.63016570  0.36659209     0.09200
C1095       C  0.09200348  0.59036063  0.40729581    -0.54300
C1096       C  0.11166207  0.62127299  0.41443018     0.09800
H1097       H  0.02243860  0.62987975  0.35961789     0.14300
H1098       H  0.13372993  0.67710511  0.39395305     0.00000
H1099       H  0.13989090  0.58033462  0.34519446     0.14600
H1100       H  0.08321980  0.56747124  0.42369739     0.14400
O1101       O  0.15786500  0.66724381  0.03699290    -0.81200
O1102       O  0.17228552  0.65840044  0.17450096    -0.65900
O1103       O  0.18698590  0.65015620  0.09389624    -1.12500
C1104       C  0.10346344  0.54091215  0.11853440     1.05700
O1105       O  0.19287996  0.59823187  0.18577233    -0.79100
O1106       O  0.20690944  0.55240678  0.14468338    -0.66700
Ni1107     Ni  0.17505214  0.69469265  0.06705712     1.34900
C1108       C  0.21739954  0.55296568  0.11821184     0.84400
O1109       O  0.21929993  0.69612570  0.13243512    -0.79600
O1110       O  0.19329255  0.72929170  0.09232056    -0.89900
C1111       C  0.18678528  0.63134019  0.19268172     0.84000
O1112       O  0.11705753  0.69837598  0.08047703    -0.68100
O1113       O  0.11971519  0.53968833  0.14370531    -0.87400
C1114       C  0.10733212  0.70625438  0.10554396     0.84800
C1115       C  0.21649431  0.72641451  0.11483551     1.06400
H1116       H  0.11334079  0.62301309  0.13871688     0.38200
O1117       O  0.14266753  0.61454032  0.13500640    -1.10100
O1118       O  0.19671133  0.57318134  0.09789376    -0.66700
Ni1119     Ni  0.14778669  0.60909191  0.09499781     1.26300
O1120       O  0.13024086  0.69315145  0.12774709    -0.66900
O1121       O  0.10946456  0.56778762  0.09803460    -0.79200
C1122       C  0.15125405  0.63336303  0.03358985     0.84200
O1123       O  0.15062542  0.60642844  0.05432583    -0.66400
Ni1124     Ni  0.15615282  0.57122064  0.16295527     1.27400
Ni1125     Ni  0.17959730  0.65604868  0.13400818     1.26100
H1126       H  0.21636238  0.64126921  0.09070593     0.38700
C1127       C  0.25710318  0.67629970  0.35160750     0.86200
C1128       C  0.21162999  0.67040559  0.36447475    -0.54100
C1129       C  0.19059038  0.64080202  0.35585126     0.09100
C1130       C  0.21789517  0.61966187  0.33448579     0.20000
C1131       C  0.28101393  0.63749154  0.35907546    -0.54800
C1132       C  0.26069803  0.60811984  0.35009057     0.09200
C1133       C  0.25054898  0.67992871  0.31857421    -0.54300
C1134       C  0.22975024  0.65050243  0.30978744     0.09800
H1135       H  0.19787556  0.68903868  0.37889501     0.14300
H1136       H  0.20251944  0.59553673  0.32665962     0.00000
H1137       H  0.31217480  0.63257547  0.36937825     0.14600
H1138       H  0.26133649  0.70362333  0.30348682     0.14400
O1139       O  0.44641732  0.87182462  0.29406949    -0.81200
O1140       O  0.41008638  0.85797275  0.42625299    -0.65900
O1141       O  0.39765667  0.87951769  0.34336227    -1.12500
C1142       C  0.49031129  0.97983939  0.35559085     1.05700
O1143       O  0.39439506  0.91849313  0.42513622    -0.79100
O1144       O  0.39791315  0.97720678  0.38430814    -0.66700
Ni1145     Ni  0.40523559  0.84315284  0.31786951     1.34900
C1146       C  0.37675739  0.97802247  0.36113155     0.84400
O1147       O  0.36495231  0.82455454  0.38636254    -0.79600
O1148       O  0.36447982  0.81230263  0.33992757    -0.89900
C1149       C  0.39995182  0.88616191  0.43966859     0.84000
O1150       O  0.45242982  0.81487481  0.33668752    -0.68100
O1151       O  0.48535927  0.97019544  0.38276872    -0.87400
C1152       C  0.46865160  0.81127155  0.36174773     0.84800
C1153       C  0.35188012  0.80654432  0.36624853     1.06400
H1154       H  0.47331755  0.89546601  0.38068943     0.38200
O1155       O  0.44419556  0.90623546  0.37878611    -1.10100
O1156       O  0.38537679  0.95543500  0.34268341    -0.66700
Ni1157     Ni  0.43491071  0.92139789  0.33859521     1.26300
O1158       O  0.45351597  0.82893244  0.38205073    -0.66900
O1159       O  0.47208434  0.96395958  0.33611897    -0.79200
C1160       C  0.44011623  0.90568767  0.28230546     0.84200
O1161       O  0.42694655  0.93124700  0.29726881    -0.66400
Ni1162     Ni  0.44029925  0.94331349  0.40384279     1.27400
Ni1163     Ni  0.40487647  0.86542257  0.38412871     1.26100
H1164       H  0.36820391  0.88931229  0.34061388     0.38700
C1165       C  0.32307635  0.85657194  0.10582061     0.86200
C1166       C  0.36674705  0.85760378  0.12125281    -0.54100
C1167       C  0.39169256  0.88722033  0.10999090     0.09100
C1168       C  0.37087647  0.91266290  0.08402845     0.20000
C1169       C  0.30229990  0.89578336  0.10759657    -0.54800
C1170       C  0.32637517  0.92507637  0.09591127     0.09200
C1171       C  0.33570310  0.85614678  0.07402572    -0.54300
C1172       C  0.36092141  0.88467679  0.06230376     0.09800
H1173       H  0.37814559  0.83658422  0.13875023     0.14300
H1174       H  0.39124005  0.93637207  0.07502745     0.00000
H1175       H  0.27101884  0.90021980  0.11776091     0.14600
H1176       H  0.32518344  0.83450974  0.06165322     0.14400
C1177       C  0.39286462  0.88359323  0.47171096    -0.05800
C1178       C  0.38419174  0.91751469  0.48366336    -0.32400
C1179       C  0.37319736  0.92058415  0.01259699     0.36000
C1180       C  0.37597442  0.88656113  0.03146031    -0.06100
C1181       C  0.38841627  0.85303364  0.01986804    -0.33100
C1182       C  0.39352974  0.84931706  0.49055788     0.35900
H1183       H  0.38360772  0.94456462  0.46998696     0.16300
O1184       O  0.36060995  0.95374212  0.02261686    -0.60600
H1185       H  0.39167512  0.82645589  0.03405650     0.16300
O1186       O  0.40253170  0.81557607  0.48033739    -0.60700
H1187       H  0.37412703  0.80693786  0.47480955     0.43300
H1188       H  0.39100479  0.96463405  0.52336589     0.43300
C1189       C  0.32201551  0.77553885  0.37256889    -0.05800
C1190       C  0.28138326  0.77933590  0.35933503    -0.33200
C1191       C  0.25944412  0.74741465  0.35393041     0.36000
C1192       C  0.27835851  0.71066686  0.36141790    -0.06100
C1193       C  0.31721103  0.70732893  0.37743146    -0.33100
C1194       C  0.33892844  0.73928676  0.38277523     0.35900
H1195       H  0.26815433  0.80722384  0.35109239     0.16300
O1196       O  0.22017194  0.75247548  0.34030002    -0.60600
H1197       H  0.33254749  0.68040600  0.38525056     0.16300
O1198       O  0.37916810  0.73471403  0.39507539    -0.60700
H1199       H  0.37374786  0.73202403  0.41624304     0.43300
H1200       H  0.22673592  0.76251129  0.31989839     0.43300
C1201       C  0.28115540  0.56958143  0.35388629    -0.05800
C1202       C  0.29766333  0.55393508  0.32977313    -0.33200
C1203       C  0.32665947  0.52240383  0.33323610     0.36000
C1204       C  0.33913565  0.50592983  0.36123736    -0.06100
C1205       C  0.31968382  0.51993832  0.38532993    -0.33100
C1206       C  0.29111276  0.55151154  0.38180239     0.35900
H1207       H  0.29050412  0.56765778  0.30821615     0.16300
O1208       O  0.34569960  0.51039718  0.30917568    -0.60600
H1209       H  0.32643253  0.00553296  0.40169007     0.16300
O1210       O  0.27530395  0.56602401  0.40582150    -0.60700
H1211       H  0.24490249  0.55820743  0.40788271     0.43300
H1212       H  0.32591666  0.49175814  0.30321306     0.43300
C1213       C  0.21971946  0.64804579  0.27922728    -0.05800
C1214       C  0.24808076  0.62762036  0.26292955    -0.33200
C1215       C  0.23771655  0.62218937  0.23470326     0.36000
C1216       C  0.19898622  0.63831239  0.22201021    -0.06100
C1217       C  0.17114815  0.65980237  0.23807879    -0.33100
C1218       C  0.18091454  0.66404739  0.26675979     0.35900
H1219       H  0.27831129  0.61571980  0.27212108     0.16300
O1220       O  0.26567744  0.60102409  0.21969192    -0.60600
H1221       H  0.14106409  0.67209322  0.22875349     0.16300
O1222       O  0.15224491  0.68355860  0.28251879    -0.60700
H1223       H  0.13325711  0.66416820  0.29261259     0.43300
H1224       H  0.28599927  0.61929132  0.20965723     0.43300
C1225       C  0.24023501  0.76029386  0.11956889    -0.05800
C1226       C  0.22489961  0.79538652  0.10558604    -0.33200
C1227       C  0.25053258  0.82676152  0.10260722     0.36000
C1228       C  0.29227135  0.82456197  0.11507952    -0.06100
C1229       C  0.30607836  0.79010237  0.13149648    -0.33100
C1230       C  0.28036997  0.75813558  0.13377670     0.35900
H1231       H  0.19376189  0.79806435  0.09495422     0.16300
O1232       O  0.23524298  0.85895778  0.08575317    -0.60600
H1233       H  0.33790547  0.78667150  0.14092374     0.16300
O1234       O  0.29659109  0.72425910  0.14760540    -0.60700
H1235       H  0.29059956  0.72513436  0.16845469     0.43300
H1236       H  0.24216481  0.85502357  0.06551740     0.43300
C1237       C  0.30940644  0.96416442  0.09718879    -0.05800
C1238       C  0.31260576  0.97913337  0.12333170    -0.33200
C1239       C  0.28682205  0.51352711  0.12994721     0.36000
C1240       C  0.25299917  0.52646277  0.11055658    -0.06100
C1241       C  0.25146937  0.01076353  0.08274982    -0.33100
C1242       C  0.27933138  0.98084345  0.07652574     0.35900
H1243       H  0.33480291  0.96580716  0.13972179     0.16300
O1244       O  0.29251951  0.53009074  0.15444870    -0.60600
H1245       H  0.22368669  0.51859926  0.07004615     0.16300
O1246       O  0.27369677  0.96530457  0.05154572    -0.60700
H1247       H  0.28290871  0.98470825  0.03564513     0.43300
H1248       H  0.27940728  0.51289557  0.17039494     0.43300
C1249       C  0.12276360  0.62476662  0.44495924    -0.05800
C1250       C  0.09481273  0.61027950  0.46746409    -0.33200
C1251       C  0.10527148  0.61084662  0.49646407     0.36000
C1252       C  0.14292558  0.62621690  0.00386031    -0.06100
C1253       C  0.17139582  0.64192517  0.48126508    -0.33100
C1254       C  0.16140869  0.64078253  0.45217883     0.35900
H1255       H  0.06434734  0.59871469  0.46263809     0.16300
O1256       O  0.07667228  0.59564217  0.01861330    -0.60600
H1257       H  0.20102166  0.65467553  0.48641950     0.16300
O1258       O  0.19059321  0.65385049  0.43121617    -0.60700
H1259       H  0.19036670  0.68163377  0.43128124     0.43300
H1260       H  0.08433705  0.56982596  0.52162090     0.43300
C1261       C  0.45107048  0.91383009  0.25131795    -0.05800
C1262       C  0.41816472  0.92256330  0.23079810    -0.33200
C1263       C  0.42571291  0.91809816  0.20156931     0.36000
C1264       C  0.46661088  0.90455453  0.19271767    -0.06100
C1265       C  0.50020691  0.89888669  0.21304572    -0.33100
C1266       C  0.49260768  0.90308985  0.24202831     0.35900
H1267       H  0.38574476  0.92994851  0.23778261     0.16300
O1268       O  0.39190827  0.92364474  0.18258344    -0.60600
H1269       H  0.53232966  0.88972096  0.20671419     0.16300
O1270       O  0.52524838  0.89373375  0.26163944    -0.60700
H1271       H  0.53940007  0.91781308  0.26308195     0.43300
H1272       H  0.38708895  0.95147897  0.17864063     0.43300
C1273       C  0.01635873  0.49249329  0.35445003    -0.05800
C1274       C  0.01506149  0.52632944  0.33512007    -0.33200
C1275       C  0.03779940  0.55767219  0.34066146     0.36000
C1276       C  0.06126893  0.55644676  0.36663187    -0.06100
C1277       C  0.06571593  0.52131922  0.38446940    -0.33100
C1278       C  0.04334116  0.48991195  0.37882138     0.35900
H1279       H  0.99571160  0.52891768  0.31571602     0.16300
O1280       O  0.03601198  0.58957209  0.32066504    -0.60600
H1281       H  0.08691872  0.51745287  0.40291786     0.16300
O1282       O  0.05423221  0.95347457  0.39359712    -0.60700
H1283       H  0.07308766  0.44303231  0.39019242     0.43300
H1284       H  0.06053915  0.58632826  0.30719791     0.43300
C1285       C  0.99343829  0.76157633  0.36960038    -0.05800
C1286       C  0.01926181  0.74991150  0.39402879    -0.33200
C1287       C  0.04797115  0.71843940  0.39509583     0.36000
C1288       C  0.05105305  0.69759495  0.37154508    -0.06100
C1289       C  0.02723589  0.71056361  0.34638157    -0.33100
C1290       C  0.99866055  0.74233499  0.34525646     0.35900
H1291       H  0.01582997  0.76433824  0.41299960     0.16300
O1292       O  0.06947391  0.70619721  0.42036647    -0.60600
H1293       H  0.02944089  0.69502421  0.32796083     0.16300
O1294       O  0.97411288  0.75279084  0.32100857    -0.60700
H1295       H  0.94852310  0.73681240  0.32368667     0.43300
H1296       H  0.09379169  0.72339268  0.42064005     0.43300
C1297       C  0.88629379  0.86157843  0.25265538    -0.05800
C1298       C  0.85072078  0.84091536  0.24706282    -0.33200
C1299       C  0.83906430  0.83775091  0.21851535     0.36000
C1300       C  0.86421269  0.85453210  0.19482760    -0.06100
C1301       C  0.90016850  0.87493295  0.20076924    -0.33100
C1302       C  0.91089087  0.87889600  0.22928646     0.35900
H1303       H  0.83059503  0.82872474  0.26483498     0.16300
O1304       O  0.80117251  0.82076704  0.21410313    -0.60600
H1305       H  0.92032556  0.88777816  0.18329741     0.16300
O1306       O  0.94525973  0.90024362  0.23411747    -0.60700
H1307       H  0.97014899  0.88190460  0.23783282     0.43300
H1308       H  0.80594107  0.79375844  0.22214404     0.43300
C1309       C  0.78702175  0.54907029  0.36322898    -0.05800
C1310       C  0.77814652  0.52772887  0.34079744    -0.33200
C1311       C  0.80164146  0.99649502  0.33889936     0.36000
C1312       C  0.83862209  0.98744648  0.35631231    -0.06100
C1313       C  0.85122683  0.50747090  0.37494951    -0.33100
C1314       C  0.82488857  0.53876201  0.37982033     0.35900
H1315       H  0.75015681  0.53474350  0.32725234     0.16300
O1316       O  0.79246075  0.97527746  0.31750180    -0.60600
H1317       H  0.87974959  0.50061656  0.38817425     0.16300
O1318       O  0.83616963  0.55889747  0.40148786    -0.60700
H1319       H  0.85989455  0.57499861  0.39327379     0.43300
H1320       H  0.77636820  0.95366951  0.32733172     0.43300
C1321       C  0.77662622  0.68753389  0.37461979    -0.05800
C1322       C  0.79726932  0.70292881  0.34894505    -0.33200
C1323       C  0.81606736  0.73824820  0.34677769     0.36000
C1324       C  0.81416885  0.75889051  0.37054541    -0.06100
C1325       C  0.79087485  0.74442113  0.39546754    -0.33100
C1326       C  0.77273714  0.70900126  0.39777341     0.35900
H1327       H  0.79971309  0.68712095  0.33068280     0.16300
O1328       O  0.83783945  0.75136628  0.32185745    -0.60600
H1329       H  0.78874780  0.75966753  0.41405013     0.16300
O1330       O  0.75349416  0.69489868  0.42343303    -0.60700
H1331       H  0.77586144  0.67794430  0.43402982     0.43300
H1332       H  0.86687264  0.73848343  0.32369859     0.43300
C1333       C  0.57779170  0.53129167  0.12020406    -0.05800
C1334       C  0.55300097  0.51921318  0.14502763    -0.33200
C1335       C  0.51808544  0.99004212  0.13735605     0.36000
C1336       C  0.52085847  0.96687326  0.11505553    -0.06100
C1337       C  0.54909500  0.97726062  0.09163904    -0.33100
C1338       C  0.57687887  0.00743461  0.09154747     0.35900
H1339       H  0.55758641  0.53117100  0.16487050     0.16300
O1340       O  0.50487816  0.47649030  0.17120380    -0.60600
H1341       H  0.55162998  0.96032846  0.07403061     0.16300
O1342       O  0.60666496  0.01361869  0.06954478    -0.60700
H1343       H  0.59135917  0.03038392  0.05390300     0.43300
H1344       H  0.47762043  0.49201432  0.17160677     0.43300
C1345       C  0.58167681  0.75593008  0.11075399    -0.05800
C1346       C  0.54836885  0.75449562  0.13149963    -0.33200
C1347       C  0.52521489  0.78747655  0.13678904     0.36000
C1348       C  0.53628473  0.82327566  0.12213158    -0.06100
C1349       C  0.56954233  0.82428730  0.10117271    -0.33100
C1350       C  0.59219402  0.79136822  0.09566292     0.35900
H1351       H  0.53944116  0.72758105  0.14319429     0.16300
O1352       O  0.49146652  0.78428913  0.15624258    -0.60600
H1353       H  0.57779236  0.85023726  0.08802124     0.16300
O1354       O  0.62488028  0.79441087  0.07542505    -0.60700
H1355       H  0.65124865  0.79790741  0.08646561     0.43300
H1356       H  0.46625688  0.77812067  0.14508618     0.43300
C1357       C  0.68692145  0.60807332  0.00159698    -0.05800
C1358       C  0.72489577  0.59144326  0.49515182    -0.33200
C1359       C  0.73736986  0.58918318  0.46649235     0.36000
C1360       C  0.70960422  0.60418116  0.44361303    -0.06100
C1361       C  0.66939155  0.62077712  0.45001203    -0.33100
C1362       C  0.65745204  0.62380650  0.47862118     0.35900
H1363       H  0.75057611  0.58244592  0.01010062     0.16300
O1364       O  0.77783967  0.57442791  0.46109779    -0.60600
H1365       H  0.64748529  0.63209716  0.43276210     0.16300
O1366       O  0.61884636  0.64186255  0.48414901    -0.60700
H1367       H  0.59752643  0.62166975  0.48688222     0.43300
H1368       H  0.79676855  0.59640549  0.45838810     0.43300
C1369       C  0.79405906  0.92549600  0.11763568    -0.05800
C1370       C  0.75004105  0.92746717  0.12505124    -0.33200
C1371       C  0.72643746  0.96183797  0.12140436     0.36000
C1372       C  0.75020298  0.49392711  0.11155455    -0.06100
C1373       C  0.79380894  0.49331596  0.10270057    -0.33100
C1374       C  0.81394493  0.95878336  0.10514941     0.35900
H1375       H  0.73397354  0.90228521  0.13450787     0.16300
O1376       O  0.68371181  0.96238598  0.12975390    -0.60600
H1377       H  0.80944306  0.51962954  0.09573444     0.16300
O1378       O  0.85614724  0.95734364  0.09582261    -0.60700
H1379       H  0.87278068  0.96899402  0.11010754     0.43300
H1380       H  0.66720915  0.96167043  0.11176428     0.43300
C1381       C  0.75242618  0.72797014  0.10055651    -0.05800
C1382       C  0.77806636  0.72160419  0.12537893    -0.33200
C1383       C  0.80656157  0.74882416  0.13204640     0.36000
C1384       C  0.80790458  0.78454430  0.11449682    -0.06100
C1385       C  0.78636262  0.78844766  0.08770851    -0.33100
C1386       C  0.75848323  0.76094326  0.08085075     0.35900
H1387       H  0.77591883  0.69529782  0.13983490     0.16300
O1388       O  0.83511636  0.73884192  0.15429041    -0.60600
H1389       H  0.78913422  0.81406774  0.07257444     0.16300
O1390       O  0.73597212  0.76733931  0.05537023    -0.60700
H1391       H  0.71498261  0.78852642  0.05753426     0.43300
H1392       H  0.81725603  0.73138935  0.17182181     0.43300
C1393       C  0.55835910  0.58266027  0.34325047    -0.05800
C1394       C  0.51700741  0.58058180  0.33175406    -0.33200
C1395       C  0.49577067  0.54640088  0.33524446     0.36000
C1396       C  0.51545212  0.51394766  0.35108154    -0.06100
C1397       C  0.55726215  0.51573795  0.36192726    -0.33100
C1398       C  0.57903137  0.54969374  0.35770850     0.35900
H1399       H  0.50081655  0.60572279  0.32053017     0.16300
O1400       O  0.45481086  0.04416540  0.31994017    -0.60600
H1401       H  0.57251597  0.49102624  0.37438741     0.16300
O1402       O  0.61964716  0.55071193  0.36894815    -0.60700
H1403       H  0.61519046  0.56012178  0.38787433     0.43300
H1404       H  0.45915994  0.04499374  0.29876069     0.43300
C1405       C  0.56294843  0.72136881  0.35830464    -0.05800
C1406       C  0.57017668  0.75778718  0.34356741    -0.33200
C1407       C  0.54175723  0.78859534  0.34672405     0.36000
C1408       C  0.50662923  0.78437855  0.36620718    -0.06100
C1409       C  0.50371697  0.75015370  0.38468116    -0.33100
C1410       C  0.53189100  0.71885190  0.38115701     0.35900
H1411       H  0.59656257  0.76233004  0.32821126     0.16300
O1412       O  0.54737757  0.82250018  0.32963553    -0.60600
H1413       H  0.47765030  0.74673162  0.40045326     0.16300
O1414       O  0.52889484  0.68609324  0.40011062    -0.60700
H1415       H  0.49864232  0.67821476  0.39899623     0.43300
H1416       H  0.53625938  0.81916740  0.31032284     0.43300
C1417       C  0.63009260  0.65954240  0.27508188    -0.05800
C1418       C  0.66968303  0.64181060  0.26872896    -0.33200
C1419       C  0.68012395  0.63603806  0.24038013     0.36000
C1420       C  0.65085323  0.64813963  0.21790758    -0.06100
C1421       C  0.61234684  0.66773018  0.22385870    -0.33100
C1422       C  0.60162038  0.67329041  0.25229095     0.35900
H1423       H  0.69219769  0.63163734  0.28590405     0.16300
O1424       O  0.71842267  0.61746801  0.23493026    -0.60600
H1425       H  0.58931206  0.67662293  0.20673149     0.16300
O1426       O  0.56161706  0.68889054  0.25786001    -0.60700
H1427       H  0.56317114  0.71620778  0.25055969     0.43300
H1428       H  0.73951758  0.63764921  0.23042245     0.43300
C1429       C  0.07250792  0.73615056  0.10748846    -0.05800
C1430       C  0.07491858  0.76045784  0.12866618    -0.33200
C1431       C  0.05155469  0.79542779  0.12586680     0.36000
C1432       C  0.02502490  0.80689647  0.10146704    -0.06100
C1433       C  0.01891886  0.78061101  0.08216749    -0.33100
C1434       C  0.04225567  0.74574725  0.08494893     0.35900
H1435       H  0.09710566  0.75358180  0.14655396     0.16300
O1436       O  0.05438827  0.81792599  0.14737736    -0.60600
H1437       H  0.99746143  0.78746652  0.06399829     0.16300
O1438       O  0.03696888  0.72217510  0.06445092    -0.60700
H1439       H  0.01181337  0.70695989  0.07125934     0.43300
H1440       H  0.08468757  0.82610606  0.14675718     0.43300
C1441       C  0.01932131  0.94973256  0.10596152    -0.05800
C1442       C  0.01236243  0.98583875  0.08976839    -0.33200
C1443       C  0.08282432  0.49384879  0.08624269     0.36000
C1444       C  0.07758033  0.50870049  0.11255000    -0.06100
C1445       C  0.07396855  0.97769396  0.13320699    -0.33100
C1446       C  0.04843646  0.94698741  0.12938342     0.35900
H1447       H  0.98723516  0.99056497  0.07363035     0.16300
O1448       O  0.11248907  0.50821945  0.06597188    -0.60600
H1449       H  0.09693709  0.97404196  0.15078382     0.16300
O1450       O  0.05095474  0.91503095  0.14939756    -0.60700
H1451       H  0.08153608  0.90551188  0.14918619     0.43300
H1452       H  0.14016904  0.49429350  0.07153968     0.43300
C1453       C  0.95102601  0.87974503  0.46786017    -0.05800
C1454       C  0.93276339  0.91005298  0.48085335    -0.33200
C1455       C  0.93778205  0.91602310  0.00744812     0.36000
C1456       C  0.95985426  0.88630365  0.02522592    -0.06100
C1457       C  0.97760732  0.85573812  0.01267504    -0.33100
C1458       C  0.97455642  0.85055658  0.48533961     0.35900
H1459       H  0.91414419  0.93249474  0.46803788     0.16300
O1460       O  0.92096883  0.94701550  0.01884859    -0.60600
H1461       H  0.99650698  0.83373702  0.02559097     0.16300
O1462       O  0.99360557  0.82052554  0.47378602    -0.60700
H1463       H  0.02228427  0.82921168  0.46655533     0.43300
H1464       H  0.89304039  0.93903892  0.02789028     0.43300
C1465       C  0.99760384  0.91037723  0.59986816     0.86200
C1466       C  0.95318676  0.90231706  0.61428024    -0.54100
C1467       C  0.93330274  0.87169919  0.60596913     0.09100
C1468       C  0.96057012  0.85198457  0.58384980     0.20000
C1469       C  0.02418369  0.87265566  0.60614438    -0.54800
C1470       C  0.00446076  0.84174009  0.59880236     0.09200
C1471       C  0.98912556  0.91356736  0.56721309    -0.54300
C1472       C  0.96949434  0.88361655  0.55880948     0.09800
H1473       H  0.93940341  0.91967956  0.62968080     0.14300
H1474       H  0.94564699  0.82760846  0.57622101     0.00000
H1475       H  0.05702392  0.87064750  0.61402983     0.14600
H1476       H  0.99937464  0.93682667  0.55151113     0.14400
C1477       C  0.57718149  0.68716121  0.84644843     0.86200
C1478       C  0.54997756  0.65165468  0.84813294    -0.54100
C1479       C  0.57141919  0.62117370  0.83918149     0.09100
C1480       C  0.61715177  0.62867096  0.82797594     0.20000
C1481       C  0.61937754  0.67338046  0.86272065    -0.54800
C1482       C  0.64074457  0.64257984  0.85298729     0.09200
C1483       C  0.59107325  0.69363696  0.81425260    -0.54300
C1484       C  0.61177607  0.66313834  0.80463141     0.09800
H1485       H  0.51655845  0.65022549  0.85522454     0.14300
H1486       H  0.63234297  0.60359311  0.81975665     0.00000
H1487       H  0.63058348  0.68750981  0.88017040     0.14600
H1488       H  0.58430761  0.71972759  0.80002305     0.14400
O1489       O  0.65208627  0.59949942  0.68742996    -0.81200
O1490       O  0.67993396  0.59395269  0.55221417    -0.65900
O1491       O  0.68973963  0.60870322  0.63139806    -1.12500
C1492       C  0.61009608  0.72253579  0.60778662     1.05700
O1493       O  0.67096317  0.65442981  0.53241299    -0.79100
O1494       O  0.70958636  0.69176606  0.57212043    -0.66700
Ni1495     Ni  0.67610385  0.56760237  0.66055012     1.34900
C1496       C  0.71999969  0.69779668  0.59731966     0.84400
O1497       O  0.72549786  0.55767946  0.59642426    -0.79600
O1498       O  0.70104824  0.52980795  0.63892781    -0.89900
C1499       C  0.67790903  0.61958417  0.53051479     0.84000
O1500       O  0.61989906  0.56166474  0.64561938    -0.68100
O1501       O  0.63082179  0.72334897  0.58404575    -0.87400
C1502       C  0.61179437  0.55431618  0.62033882     0.84800
C1503       C  0.72367928  0.52919734  0.61601431     1.06400
H1504       H  0.61397236  0.63415543  0.58754024     0.38200
O1505       O  0.64293389  0.64253442  0.58965499    -1.10100
O1506       O  0.69812436  0.68549025  0.61989504    -0.66700
Ni1507     Ni  0.65028326  0.65154904  0.62862052     1.26300
O1508       O  0.63638323  0.56508975  0.59873053    -0.66900
O1509       O  0.60889286  0.69284465  0.62585699    -0.79200
C1510       C  0.65270638  0.63463431  0.68923727     0.84200
O1511       O  0.65801897  0.65923914  0.66754110    -0.66400
Ni1512     Ni  0.65168004  0.68549662  0.56071252     1.27400
Ni1513     Ni  0.68407572  0.59992741  0.59214268     1.26100
H1514       H  0.71878635  0.61612974  0.63446908     0.38700
C1515       C  0.74971058  0.58365660  0.86922683     0.86200
C1516       C  0.70533131  0.59442232  0.85445086    -0.54100
C1517       C  0.68302759  0.62459271  0.86475398     0.09100
C1518       C  0.70758947  0.64006620  0.88882840     0.20000
C1519       C  0.77328702  0.62107284  0.86476012    -0.54800
C1520       C  0.75148976  0.65047490  0.87503617     0.09200
C1521       C  0.73812050  0.57649696  0.90141165    -0.54300
C1522       C  0.71720619  0.60588664  0.91189364     0.09800
H1523       H  0.69355315  0.58005532  0.83734496     0.14300
H1524       H  0.69093310  0.66390879  0.89775947     0.00000
H1525       H  0.80488577  0.62391861  0.85443387     0.14600
H1526       H  0.74626650  0.54999498  0.91493325     0.14400
O1527       O  0.88889799  0.90293738  0.78474238    -0.81200
O1528       O  0.92782383  0.90561255  0.91628878    -0.65900
O1529       O  0.93451884  0.88900801  0.83672465    -1.12500
C1530       C  0.83878999  0.79031755  0.87076328     1.05700
O1531       O  0.94099788  0.84485040  0.92811821    -0.79100
O1532       O  0.93678695  0.79040362  0.89546939    -0.66700
Ni1533     Ni  0.92636050  0.93018593  0.80636824     1.34900
C1534       C  0.95461818  0.78998890  0.87090202     0.84400
O1535       O  0.97385431  0.93606772  0.87060505    -0.79600
O1536       O  0.96466095  0.96152280  0.82435223    -0.89900
C1537       C  0.93872242  0.87784973  0.93513638     0.84000
O1538       O  0.87632588  0.95371033  0.82191233    -0.68100
O1539       O  0.84910624  0.79621729  0.89611856    -0.87400
C1540       C  0.86664432  0.95764370  0.84787084     0.84800
C1541       C  0.98234268  0.96056956  0.84906488     1.06400
H1542       H  0.86062776  0.87327229  0.88129794     0.38200
O1543       O  0.88894180  0.86128692  0.87951205    -1.10100
O1544       O  0.94251247  0.81231778  0.84848613    -0.66700
Ni1545     Ni  0.89428748  0.84904442  0.84109385     1.26300
O1546       O  0.88605541  0.93893693  0.86957475    -0.66900
O1547       O  0.85414327  0.80853378  0.84752277    -0.79200
C1548       C  0.89079515  0.86841389  0.78072174     0.84200
O1549       O  0.89870333  0.84166499  0.80115711    -0.66400
Ni1550     Ni  0.89452473  0.82210396  0.91112353     1.27400
Ni1551     Ni  0.93096806  0.89918306  0.87584927     1.26100
H1552       H  0.96318798  0.87824029  0.83382048     0.38700
C1553       C  0.82650999  0.81886158  0.62311936     0.86200
C1554       C  0.79938425  0.85555071  0.61356311    -0.54100
C1555       C  0.81674730  0.88778255  0.62047028     0.09100
C1556       C  0.85995863  0.88029939  0.63669738     0.20000
C1557       C  0.87163460  0.82657324  0.61009123    -0.54800
C1558       C  0.88964825  0.85880234  0.61692060     0.09200
C1559       C  0.83168627  0.81936901  0.65583560    -0.54300
C1560       C  0.84956582  0.85101908  0.66303374     0.09800
H1561       H  0.76826965  0.85591700  0.60301438     0.14300
H1562       H  0.87304062  0.90626965  0.64310545     0.00000
H1563       H  0.88729849  0.80740071  0.59675371     0.14600
H1564       H  0.82147117  0.79726849  0.67231219     0.14400
C1565       C  0.51078437  0.86003755  0.62744456     0.86200
C1566       C  0.46679343  0.85843637  0.61333149    -0.54100
C1567       C  0.43869433  0.88773621  0.61685814     0.09100
C1568       C  0.45774739  0.91766002  0.63375206     0.20000
C1569       C  0.52777788  0.89875313  0.61462243    -0.54800
C1570       C  0.50077822  0.92920734  0.61810124     0.09200
C1571       C  0.50054881  0.86494702  0.65917445    -0.54300
C1572       C  0.47287781  0.89501387  0.66266081     0.09800
H1573       H  0.45767290  0.83482146  0.60254213     0.14300
H1574       H  0.43482830  0.94174729  0.63622920     0.00000
H1575       H  0.56038828  0.90293116  0.60663025     0.14600
H1576       H  0.51468105  0.84651473  0.67736235     0.14400
C1577       C  0.08126470  0.59124679  0.87488771     0.86200
C1578       C  0.05322978  0.62793719  0.86835271    -0.54100
C1579       C  0.07177229  0.65940789  0.87546574     0.09100
C1580       C  0.11687847  0.65115101  0.88909303     0.20000
C1581       C  0.12459286  0.59993754  0.85952216    -0.54800
C1582       C  0.14387661  0.63117240  0.86688668     0.09200
C1583       C  0.09113739  0.58923727  0.90741522    -0.54300
C1584       C  0.11012660  0.62018601  0.91493934     0.09800
H1585       H  0.02065625  0.62881153  0.85984079     0.14300
H1586       H  0.13055807  0.67684378  0.89539761     0.00000
H1587       H  0.13846443  0.58207545  0.84450090     0.14600
H1588       H  0.08313035  0.56594999  0.92366427     0.14400
O1589       O  0.16429480  0.66533594  0.53716115    -0.81200
O1590       O  0.17136060  0.65606169  0.67470030    -0.65900
O1591       O  0.18834694  0.64639813  0.59472839    -1.12500
C1592       C  0.09812269  0.54160653  0.61799335     1.05700
O1593       O  0.18893162  0.59537272  0.68701312    -0.79100
O1594       O  0.20586687  0.55250772  0.64405832    -0.66700
Ni1595     Ni  0.18203324  0.69156076  0.56761948     1.34900
C1596       C  0.21363466  0.55098945  0.61741340     0.84400
O1597       O  0.22225182  0.69152361  0.63430687    -0.79600
O1598       O  0.20142736  0.72509442  0.59309903    -0.89900
C1599       C  0.18382461  0.62887534  0.69337654     0.84000
O1600       O  0.12378986  0.69989304  0.57929020    -0.68100
O1601       O  0.11879831  0.53822025  0.64182186    -0.87400
C1602       C  0.11210809  0.70575727  0.60460045     0.84800
C1603       C  0.22173205  0.72188555  0.61677064     1.06400
H1604       H  0.11237857  0.62249490  0.63953340     0.38200
O1605       O  0.14119474  0.61319829  0.63532314    -1.10100
O1606       O  0.19051358  0.56935332  0.59745857    -0.66700
Ni1607     Ni  0.14483059  0.60840478  0.59523219     1.26300
O1608       O  0.13308237  0.69122439  0.62725658    -0.66900
O1609       O  0.10211734  0.56996001  0.59828844    -0.79200
C1610       C  0.15227057  0.63285783  0.53359849     0.84200
O1611       O  0.14637115  0.60656021  0.55434193    -0.66400
Ni1612     Ni  0.15406739  0.56908964  0.66247096     1.27400
Ni1613     Ni  0.18046147  0.65291011  0.63469061     1.26100
H1614       H  0.21690963  0.63524358  0.59221378     0.38700
C1615       C  0.25144394  0.68184331  0.85024174     0.86200
C1616       C  0.20652609  0.67447232  0.86339831    -0.54100
C1617       C  0.18738006  0.64345932  0.85559211     0.09100
C1618       C  0.21575904  0.62276000  0.83446908     0.20000
C1619       C  0.27774925  0.64424752  0.85815461    -0.54800
C1620       C  0.25919489  0.61348500  0.84987708     0.09200
C1621       C  0.24495324  0.68408434  0.81728135    -0.54300
C1622       C  0.22576580  0.65348547  0.80922134     0.09800
H1623       H  0.19180962  0.69307106  0.87753126     0.14300
H1624       H  0.20175738  0.59761959  0.82724023     0.00000
H1625       H  0.30951100  0.64163631  0.86786010     0.14600
H1626       H  0.25487773  0.70752836  0.80163501     0.14400
O1627       O  0.44213510  0.87750293  0.79286402    -0.81200
O1628       O  0.40492540  0.86148353  0.92477387    -0.65900
O1629       O  0.39234465  0.88466074  0.84182029    -1.12500
C1630       C  0.48277311  0.98563248  0.85541916     1.05700
O1631       O  0.38720684  0.92139272  0.92408753    -0.79100
O1632       O  0.38865078  0.98066654  0.88410693    -0.66700
Ni1633     Ni  0.39999200  0.84891021  0.81585823     1.34900
C1634       C  0.36887776  0.98188331  0.86040030     0.84400
O1635       O  0.35972203  0.82894220  0.88413635    -0.79600
O1636       O  0.35805007  0.81862372  0.83722525    -0.89900
C1637       C  0.39470806  0.88934112  0.93853969     0.84000
O1638       O  0.44613743  0.81907676  0.83477994    -0.68100
O1639       O  0.47626629  0.97642137  0.88250488    -0.87400
C1640       C  0.46242004  0.81517748  0.85983341     0.84800
C1641       C  0.34558462  0.81224122  0.86358383     1.06400
H1642       H  0.46732395  0.90084034  0.87989956     0.38200
O1643       O  0.43804994  0.91122080  0.87776628    -1.10100
O1644       O  0.37927187  0.96045271  0.84142258    -0.66700
Ni1645     Ni  0.42921670  0.92674120  0.83747452     1.26300
O1646       O  0.44822374  0.83356770  0.88000501    -0.66900
O1647       O  0.46592317  0.96945054  0.83559002    -0.79200
C1648       C  0.43509991  0.91114906  0.78085512     0.84200
O1649       O  0.42201861  0.93677182  0.79587805    -0.66400
Ni1650     Ni  0.43222951  0.94787844  0.90323095     1.27400
Ni1651     Ni  0.39944456  0.86986423  0.88253842     1.26100
H1652       H  0.36284934  0.89437572  0.83915528     0.38700
C1653       C  0.32388818  0.85420518  0.60734033     0.86200
C1654       C  0.36841892  0.85576281  0.62149215    -0.54100
C1655       C  0.39250802  0.88542827  0.60935522     0.09100
C1656       C  0.37010672  0.91053359  0.58386331     0.20000
C1657       C  0.30298195  0.89346296  0.60930966    -0.54800
C1658       C  0.32612789  0.92289467  0.59657962     0.09200
C1659       C  0.33453694  0.85362263  0.57522790    -0.54300
C1660       C  0.35911677  0.88221387  0.56266434     0.09800
H1661       H  0.38078007  0.83523350  0.63900518     0.14300
H1662       H  0.38998502  0.93427416  0.57430941     0.00000
H1663       H  0.27205761  0.89783253  0.61992785     0.14600
H1664       H  0.32343131  0.83167730  0.56338805     0.14400
C1665       C  0.39026671  0.88687056  0.97082279    -0.05800
C1666       C  0.38002242  0.92053998  0.98283257    -0.32400
C1667       C  0.37488852  0.91763315  0.51313122     0.36000
C1668       C  0.37402219  0.88341959  0.53180636    -0.06100
C1669       C  0.38447476  0.84944548  0.52024393    -0.33100
C1670       C  0.39550690  0.85299468  0.98992156     0.35900
H1671       H  0.37624248  0.94736431  0.96901550     0.16300
O1672       O  0.36360767  0.95125713  0.52290232    -0.60600
H1673       H  0.38502537  0.82263497  0.53422465     0.16300
O1674       O  0.40719236  0.81975268  0.97969332    -0.60700
H1675       H  0.37971385  0.80690357  0.97798075     0.43300
H1676       H  0.38753620  0.96767370  0.02345656     0.43300
C1677       C  0.31391506  0.78255263  0.86935125    -0.05800
C1678       C  0.27632890  0.78583543  0.85259384    -0.33200
C1679       C  0.25411257  0.75372711  0.84812562     0.36000
C1680       C  0.27056635  0.71729251  0.85955038    -0.06100
C1681       C  0.30473298  0.71498460  0.87965123    -0.33100
C1682       C  0.32632706  0.74726265  0.88449089     0.35900
H1683       H  0.26588946  0.81315024  0.84125451     0.16300
O1684       O  0.21715579  0.75809714  0.83180696    -0.60600
H1685       H  0.31586895  0.68833600  0.89140675     0.16300
O1686       O  0.36224165  0.74341166  0.90171488    -0.60700
H1687       H  0.35108856  0.74558716  0.92148463     0.43300
H1688       H  0.22631913  0.76880518  0.81202419     0.43300
C1689       C  0.28140334  0.57551783  0.85419294    -0.05800
C1690       C  0.29607146  0.55831538  0.83033170    -0.33200
C1691       C  0.32437076  0.52632698  0.83388440     0.36000
C1692       C  0.33778286  0.51054656  0.86183113    -0.06100
C1693       C  0.32049045  0.52637881  0.88583853    -0.33100
C1694       C  0.29270457  0.55854355  0.88215567     0.35900
H1695       H  0.28755381  0.57070243  0.80877298     0.16300
O1696       O  0.34147807  0.51286079  0.80980189    -0.60600
H1697       H  0.30649051  0.99939562  0.89814913     0.16300
O1698       O  0.27813313  0.57410554  0.90601999    -0.60700
H1699       H  0.24764971  0.56668750  0.90876219     0.43300
H1700       H  0.32130324  0.49359469  0.80536592     0.43300
C1701       C  0.21605694  0.64968736  0.77888814    -0.05800
C1702       C  0.24318317  0.62654645  0.76395661    -0.33200
C1703       C  0.23260295  0.61912473  0.73631972     0.36000
C1704       C  0.19528600  0.63647228  0.72258539    -0.06100
C1705       C  0.16904293  0.66119561  0.73700887    -0.33100
C1706       C  0.17882023  0.66728237  0.76527134     0.35900
H1707       H  0.27293888  0.61448520  0.77355548     0.16300
O1708       O  0.25917676  0.59509311  0.72281828    -0.60600
H1709       H  0.14027199  0.67484629  0.72669184     0.16300
O1710       O  0.15184008  0.69030417  0.77940953    -0.60700
H1711       H  0.13248013  0.67298591  0.79144590     0.43300
H1712       H  0.28142877  0.61129245  0.71265615     0.43300
C1713       C  0.24428824  0.75587140  0.62279774    -0.05800
C1714       C  0.22694689  0.79104946  0.61034056    -0.33200
C1715       C  0.25155499  0.82308546  0.60696015     0.36000
C1716       C  0.29427182  0.82155975  0.61778701    -0.06100
C1717       C  0.31009647  0.78690509  0.63312593    -0.33100
C1718       C  0.28536430  0.75423475  0.63568325     0.35900
H1719       H  0.19504234  0.79321067  0.60076514     0.16300
O1720       O  0.23435300  0.85516076  0.59092850    -0.60600
H1721       H  0.34273377  0.78390247  0.64126261     0.16300
O1722       O  0.30338215  0.72034201  0.64820396    -0.60700
H1723       H  0.29727926  0.71953998  0.66920579     0.43300
H1724       H  0.23990185  0.85172303  0.57042649     0.43300
C1725       C  0.30782370  0.96209231  0.59598408    -0.05800
C1726       C  0.31370780  0.98113076  0.61994332    -0.33200
C1727       C  0.28433203  0.51274821  0.62763383     0.36000
C1728       C  0.24905666  0.52466581  0.60919729    -0.06100
C1729       C  0.24696410  0.00577815  0.58132424    -0.33100
C1730       C  0.27531014  0.97565737  0.57597744     0.35900
H1731       H  0.33851012  0.97096854  0.63554194     0.16300
O1732       O  0.29105949  0.52969650  0.65181872    -0.60600
H1733       H  0.21817139  0.51618637  0.56931783     0.16300
O1734       O  0.26841698  0.95725226  0.55255962    -0.60700
H1735       H  0.28000985  0.97387059  0.53569928     0.43300
H1736       H  0.27968673  0.51215505  0.66823449     0.43300
C1737       C  0.12180984  0.62295589  0.94548597    -0.05800
C1738       C  0.09438760  0.60800667  0.96819695    -0.33200
C1739       C  0.10499462  0.60908978  0.99714931     0.36000
C1740       C  0.14364428  0.62691813  0.50357513    -0.06100
C1741       C  0.17045072  0.64105406  0.98138911    -0.33100
C1742       C  0.16047690  0.63914538  0.95240801     0.35900
H1743       H  0.06411558  0.59597164  0.96354931     0.16300
O1744       O  0.07671878  0.59724859  0.51764977    -0.60600
H1745       H  0.19985141  0.65428684  0.98635569     0.16300
O1746       O  0.18971892  0.65149483  0.93122422    -0.60700
H1747       H  0.19033837  0.67926530  0.93112029     0.43300
H1748       H  0.08380297  0.56812845  0.02267807     0.43300
C1749       C  0.44474258  0.91880217  0.74953015    -0.05800
C1750       C  0.41103977  0.91986237  0.72948287    -0.33200
C1751       C  0.41971605  0.91383603  0.70066115     0.36000
C1752       C  0.46253603  0.90624424  0.69173450    -0.06100
C1753       C  0.49626203  0.90751554  0.71139935    -0.33100
C1754       C  0.48764502  0.91362058  0.73997902     0.35900
H1755       H  0.37774340  0.92242138  0.73670822     0.16300
O1756       O  0.38591519  0.91161512  0.68232971    -0.60600
H1757       H  0.52947157  0.90234304  0.70484528     0.16300
O1758       O  0.52121783  0.91128176  0.75912866    -0.60700
H1759       H  0.52764871  0.93786020  0.76084337     0.43300
H1760       H  0.37524496  0.93810328  0.67675730     0.43300
C1761       C  0.01263475  0.49404415  0.85367070    -0.05800
C1762       C  0.01424097  0.52733217  0.83377657    -0.33200
C1763       C  0.03858715  0.55777530  0.83946242     0.36000
C1764       C  0.06043876  0.55623308  0.86608662    -0.06100
C1765       C  0.06256813  0.52129729  0.88424174    -0.33100
C1766       C  0.03891640  0.49077111  0.87842606     0.35900
H1767       H  0.99591111  0.53020783  0.81392187     0.16300
O1768       O  0.03959958  0.58932449  0.81915398    -0.60600
H1769       H  0.08289112  0.51675126  0.90309693     0.16300
O1770       O  0.03790174  0.95615184  0.89905973    -0.60700
H1771       H  0.06579754  0.44277953  0.89035570     0.43300
H1772       H  0.06710743  0.58654760  0.80833465     0.43300
C1773       C  0.99050500  0.76122403  0.86930571    -0.05800
C1774       C  0.01506144  0.74921743  0.89433427    -0.33200
C1775       C  0.04379599  0.71766025  0.89593902     0.36000
C1776       C  0.04808422  0.69691770  0.87239535    -0.06100
C1777       C  0.02574100  0.71021820  0.84668240    -0.33100
C1778       C  0.99730405  0.74219807  0.84495176     0.35900
H1779       H  0.01067343  0.76349608  0.91331939     0.16300
O1780       O  0.06428950  0.70534199  0.92158661    -0.60600
H1781       H  0.02912602  0.69487554  0.82819902     0.16300
O1782       O  0.97463743  0.75323381  0.81996105    -0.60700
H1783       H  0.94986477  0.73632588  0.82096384     0.43300
H1784       H  0.08867375  0.72237749  0.92225647     0.43300
C1785       C  0.88177628  0.86042299  0.75133070    -0.05800
C1786       C  0.84165054  0.84681658  0.74512214    -0.33200
C1787       C  0.83006353  0.84459533  0.71641650     0.36000
C1788       C  0.85926408  0.85555557  0.69350554    -0.06100
C1789       C  0.89922419  0.86954134  0.69988358    -0.33100
C1790       C  0.91040828  0.87223263  0.72849189     0.35900
H1791       H  0.81855789  0.83938462  0.76243266     0.16300
O1792       O  0.78910271  0.83425902  0.71079125    -0.60600
H1793       H  0.92209249  0.87806863  0.68267108     0.16300
O1794       O  0.94909069  0.88724455  0.73392677    -0.60700
H1795       H  0.96970173  0.86520650  0.73795044     0.43300
H1796       H  0.78776926  0.80723320  0.71903632     0.43300
C1797       C  0.77934225  0.55070728  0.86145311    -0.05800
C1798       C  0.76905626  0.52708769  0.84079090    -0.33200
C1799       C  0.79686398  0.99727268  0.83609627     0.36000
C1800       C  0.83417481  0.98786639  0.85318783    -0.06100
C1801       C  0.84565621  0.51161791  0.87217540    -0.33100
C1802       C  0.81868189  0.54252692  0.87684391     0.35900
H1803       H  0.73944195  0.53205510  0.82861258     0.16300
O1804       O  0.78711836  0.97635146  0.81462172    -0.60600
H1805       H  0.87541762  0.50653679  0.88434485     0.16300
O1806       O  0.83065907  0.56425713  0.89734494    -0.60700
H1807       H  0.85390423  0.58016403  0.88813489     0.43300
H1808       H  0.77031356  0.95513481  0.82434361     0.43300
C1809       C  0.76875820  0.68886933  0.87260165    -0.05800
C1810       C  0.78892646  0.70443172  0.84678216    -0.33200
C1811       C  0.80941087  0.73895204  0.84495930     0.36000
C1812       C  0.80960672  0.75869826  0.86919861    -0.06100
C1813       C  0.78685864  0.74410530  0.89435096    -0.33100
C1814       C  0.76705956  0.70942996  0.89629431     0.35900
H1815       H  0.78987959  0.68922849  0.82816861     0.16300
O1816       O  0.83079340  0.75205200  0.81987676    -0.60600
H1817       H  0.78631604  0.75862705  0.91331892     0.16300
O1818       O  0.74846516  0.69499383  0.92209385    -0.60700
H1819       H  0.77120301  0.67816533  0.93240814     0.43300
H1820       H  0.86016242  0.73979725  0.82179529     0.43300
C1821       C  0.57447534  0.52960101  0.61692364    -0.05800
C1822       C  0.54589423  0.52056042  0.64039695    -0.33200
C1823       C  0.51457518  0.99199177  0.63571900     0.36000
C1824       C  0.51862730  0.96807622  0.61400206    -0.06100
C1825       C  0.54761281  0.97792094  0.59089962    -0.33100
C1826       C  0.57552756  0.00789426  0.59099547     0.35900
H1827       H  0.54763296  0.53488403  0.65937666     0.16300
O1828       O  0.49268798  0.48187971  0.66542507    -0.60600
H1829       H  0.55088682  0.96050831  0.57361327     0.16300
O1830       O  0.60615978  0.01352814  0.56947211    -0.60700
H1831       H  0.59213651  0.03149538  0.55396875     0.43300
H1832       H  0.46598171  0.49823267  0.66270777     0.43300
C1833       C  0.58715232  0.75759356  0.61447758    -0.05800
C1834       C  0.54943395  0.75552040  0.63151863    -0.33200
C1835       C  0.52538870  0.78837857  0.63611271     0.36000
C1836       C  0.53929420  0.82456079  0.62414736    -0.06100
C1837       C  0.57822833  0.82623392  0.60795587    -0.33100
C1838       C  0.60198419  0.79342171  0.60330902     0.35900
H1839       H  0.53761685  0.72823724  0.64052221     0.16300
O1840       O  0.48782712  0.78480041  0.65208223    -0.60600
H1841       H  0.59074304  0.85252461  0.59794830     0.16300
O1842       O  0.63972494  0.79686789  0.58755040    -0.60700
H1843       H  0.66291868  0.79648659  0.60208206     0.43300
H1844       H  0.46631369  0.77607762  0.63912037     0.43300
C1845       C  0.68563680  0.60964893  0.50133565    -0.05800
C1846       C  0.72645648  0.59181578  0.99377183    -0.33200
C1847       C  0.73665828  0.59061505  0.96460983     0.36000
C1848       C  0.70649263  0.60501351  0.94294962    -0.06100
C1849       C  0.66621366  0.61977261  0.95103404    -0.33100
C1850       C  0.65635785  0.62139913  0.98014737     0.35900
H1851       H  0.74726570  0.58133905  0.51243275     0.16300
O1852       O  0.77712640  0.57740226  0.95750412    -0.60600
H1853       H  0.64259177  0.63059386  0.93472420     0.16300
O1854       O  0.61746173  0.63758555  0.98742065    -0.60700
H1855       H  0.59834342  0.61609397  0.99282318     0.43300
H1856       H  0.79461828  0.60020272  0.95340825     0.43300
C1857       C  0.79284284  0.92525429  0.61618256    -0.05800
C1858       C  0.74850057  0.92689720  0.62287599    -0.33200
C1859       C  0.72527813  0.96147463  0.62115157     0.36000
C1860       C  0.74750628  0.49299763  0.61296068    -0.06100
C1861       C  0.79087102  0.49215885  0.60359391    -0.33100
C1862       C  0.81352377  0.95929290  0.60660674     0.35900
H1863       H  0.73189612  0.90126753  0.63048780     0.16300
O1864       O  0.68228751  0.96166432  0.62883998    -0.60600
H1865       H  0.80635448  0.51833437  0.59591574     0.16300
O1866       O  0.85634564  0.95862055  0.59856686    -0.60700
H1867       H  0.87173453  0.96956683  0.61380580     0.43300
H1868       H  0.66653452  0.95983000  0.61073245     0.43300
C1869       C  0.75562997  0.72364621  0.60047586    -0.05800
C1870       C  0.78054719  0.71889489  0.62566288    -0.33200
C1871       C  0.80721324  0.74756580  0.63218086     0.36000
C1872       C  0.80687370  0.78306922  0.61425167    -0.06100
C1873       C  0.78657703  0.78536226  0.58715441    -0.33100
C1874       C  0.76112981  0.75625625  0.58025702     0.35900
H1875       H  0.77892284  0.69296414  0.64060252     0.16300
O1876       O  0.83531382  0.73958357  0.65492486    -0.60600
H1877       H  0.78863820  0.81071522  0.57166620     0.16300
O1878       O  0.73986083  0.76104917  0.55431825    -0.60700
H1879       H  0.71238298  0.77502408  0.55786817     0.43300
H1880       H  0.81725235  0.73179187  0.67229136     0.43300
C1881       C  0.55276248  0.58370339  0.84128533    -0.05800
C1882       C  0.51391425  0.57946852  0.82725589    -0.33200
C1883       C  0.49369484  0.54487638  0.83135490     0.36000
C1884       C  0.51182569  0.51444616  0.85038993    -0.06100
C1885       C  0.55151822  0.51833419  0.86357869    -0.33100
C1886       C  0.57237163  0.55260216  0.85876666     0.35900
H1887       H  0.49876461  0.60329319  0.81367686     0.16300
O1888       O  0.45301831  0.04886376  0.81557606    -0.60600
H1889       H  0.56564016  0.49514534  0.87832295     0.16300
O1890       O  0.61083636  0.55593606  0.87231213    -0.60700
H1891       H  0.60280872  0.56460221  0.89107264     0.43300
H1892       H  0.46044160  0.04141627  0.79632359     0.43300
C1893       C  0.55358669  0.72221586  0.85697581    -0.05800
C1894       C  0.56364194  0.75893853  0.84405164    -0.33200
C1895       C  0.53610317  0.79047658  0.84706113     0.36000
C1896       C  0.49883661  0.78660615  0.86466224    -0.06100
C1897       C  0.49219355  0.75147562  0.88116514    -0.33100
C1898       C  0.51936019  0.71951111  0.87778090     0.35900
H1899       H  0.59171491  0.76319231  0.83008541     0.16300
O1900       O  0.54492115  0.82487929  0.83168613    -0.60600
H1901       H  0.46416351  0.74812307  0.89533411     0.16300
O1902       O  0.51259683  0.68611105  0.89527948    -0.60700
H1903       H  0.48223407  0.67982376  0.89206446     0.43300
H1904       H  0.53384936  0.82399322  0.81193560     0.43300
C1905       C  0.62504386  0.66153747  0.77413350    -0.05800
C1906       C  0.66333977  0.64114716  0.76859120    -0.33200
C1907       C  0.67355252  0.63355460  0.74065433     0.36000
C1908       C  0.64568315  0.64688411  0.71770158    -0.06100
C1909       C  0.60890153  0.66932720  0.72267243    -0.33100
C1910       C  0.59816802  0.67648887  0.75074371     0.35900
H1911       H  0.68485050  0.63006741  0.78612603     0.16300
O1912       O  0.71016329  0.61208804  0.73610122    -0.60600
H1913       H  0.58713057  0.67944689  0.70504134     0.16300
O1914       O  0.55946005  0.69496395  0.75533591    -0.60700
H1915       H  0.56396412  0.72198522  0.74823892     0.43300
H1916       H  0.73277862  0.63057882  0.73029282     0.43300
C1917       C  0.07615610  0.73427337  0.60700419    -0.05800
C1918       C  0.07581846  0.75624834  0.62984215    -0.33200
C1919       C  0.05078595  0.79023234  0.62830441     0.36000
C1920       C  0.02507231  0.80264295  0.60372712    -0.06100
C1921       C  0.02116052  0.77803906  0.58291109    -0.33100
C1922       C  0.04668272  0.74452975  0.58414339     0.35900
H1923       H  0.09722101  0.74855457  0.64807094     0.16300
O1924       O  0.05132319  0.81093391  0.65105729    -0.60600
H1925       H  0.99990796  0.78539551  0.56473600     0.16300
O1926       O  0.04428216  0.72318945  0.56190304    -0.60700
H1927       H  0.02410598  0.70301045  0.56887756     0.43300
H1928       H  0.08110709  0.82011931  0.65148892     0.43300
C1929       C  0.01915026  0.94547908  0.60851326    -0.05800
C1930       C  0.01053918  0.98150476  0.59256597    -0.33200
C1931       C  0.03902950  0.51327123  0.59078021     0.36000
C1932       C  0.06943676  0.51004347  0.61330861    -0.06100
C1933       C  0.07297533  0.97470361  0.63542990    -0.33100
C1934       C  0.04871896  0.94329996  0.63164382     0.35900
H1935       H  0.98512777  0.98557600  0.57659792     0.16300
O1936       O  0.03092797  0.54744961  0.57403549    -0.60600
H1937       H  0.09638528  0.97158243  0.65273750     0.16300
O1938       O  0.05285385  0.91129433  0.65149579    -0.60700
H1939       H  0.08371637  0.90266369  0.65080085     0.43300
H1940       H  0.03333914  0.54246887  0.55366426     0.43300
C1941       C  0.94909082  0.88258839  0.96544987    -0.05800
C1942       C  0.93247635  0.91399702  0.97781384    -0.33200
C1943       C  0.93725479  0.91104870  0.51069069     0.36000
C1944       C  0.96069785  0.88172706  0.52789141    -0.06100
C1945       C  0.97919875  0.85187664  0.51489427    -0.33100
C1946       C  0.97289352  0.85383174  0.98316808     0.35900
H1947       H  0.91432957  0.93648927  0.96470860     0.16300
O1948       O  0.91857203  0.94073506  0.52285014    -0.60600
H1949       H  0.99884181  0.83013060  0.52741462     0.16300
O1950       O  0.99195408  0.82357726  0.97191139    -0.60700
H1951       H  0.02020532  0.83248546  0.96399370     0.43300
H1952       H  0.89127302  0.93111166  0.53188068     0.43300
loop_ 
_geom_bond_atom_site_label_1 
_geom_bond_atom_site_label_2 
_geom_bond_distance 
_geom_bond_site_symmetry_2 
_ccdc_geom_bond_type 
C1            C2   1.549   1_455  S
C1            C7   1.536   1_455  S
C1            C5   1.532       .  S
C1          C465   1.543       .  S
C2            H9   1.079       .  S
C2            C3   1.379       .  D
C3            C4   1.552       .  S
C3           C94   1.513       .  S
C4            C8   1.546       .  S
C4            C6   1.552   1_655  S
C4           H10   1.104       .  S
C5           H11   1.084       .  S
C5            C6   1.368       .  D
C6          C456   1.509       .  S
C7           H12   1.085       .  S
C7            C8   1.358       .  D
C8          C480   1.488       .  S
C13          C14   1.544       .  S
C13          C19   1.543       .  S
C13          C17   1.537       .  S
C13         C429   1.545       .  S
C14          H21   1.085       .  S
C14          C15   1.366       .  D
C15          C16   1.529       .  S
C15         C417   1.476       .  S
C16          C20   1.535       .  S
C16          C18   1.537       .  S
C16          H22   1.106       .  S
C17          H23   1.080       .  S
C17          C18   1.380       .  D
C18          C53   1.504       .  S
C19          H24   1.081       .  S
C19          C20   1.362       .  D
C20         C441   1.480       .  S
O25         Ni31   1.918       .  S
O25          C46   1.267       .  A
O26         Ni49   1.908       .  S
O26          C35   1.269       .  A
O27         Ni31   1.918       .  S
O27         Ni49   1.908       .  S
O27         Ni43   1.908       .  S
O27          H50   0.965       .  S
C28          O45   1.266       .  A
C28          O37   1.268       .  A
C28         C369   1.484       .  S
O29         Ni48   1.906       .  S
O29          C35   1.267       .  A
O30         Ni48   1.905       .  S
O30          C32   1.271       .  A
Ni31         O34   1.909       .  S
Ni31         O36   1.912       .  S
C32          O42   1.280       .  A
C32         C405   1.492       .  S
O33         Ni49   1.936       .  S
O33          C39   1.277       .  A
O34          C39   1.270       .  A
C35         C381   1.465   1_554  S
O36          C38   1.271       .  A
O37         Ni48   1.924       .  S
C38          O44   1.278       .  A
C38         C357   1.499       .  S
C39         C396   1.481   1_545  S
H40          O41   0.967       .  S
O41         Ni49   1.941       .  S
O41         Ni43   1.910       .  S
O41         Ni48   1.928       .  S
O42         Ni43   1.955       .  S
Ni43         O47   1.889       .  S
Ni43         O45   1.912       .  S
O44         Ni49   1.953       .  S
C46          O47   1.261       .  A
C46         C444   1.455       .  S
C51          C52   1.554       .  S
C51          C57   1.528       .  S
C51          C55   1.537       .  S
C51         C333   1.534       .  S
C52          H59   1.080       .  S
C52          C53   1.388       .  D
C53          C54   1.541       .  S
C54          C58   1.538       .  S
C54          C56   1.533       .  S
C54          H60   1.101       .  S
C55          H61   1.086       .  S
C55          C56   1.360       .  D
C56         C345   1.484       .  S
C57          H62   1.086       .  S
C57          C58   1.354       .  D
C58         C384   1.483       .  S
O63         Ni69   1.928       .  S
O63          C84   1.273       .  A
O64         Ni87   1.929       .  S
O64          C73   1.271       .  A
O65         Ni69   1.909       .  S
O65         Ni87   1.913       .  S
O65         Ni81   1.928       .  S
O65          H88   0.967       .  S
C66          O83   1.285       .  A
C66          O75   1.274       .  A
C66         C348   1.487       .  S
O67         Ni86   1.907       .  S
O67          C73   1.262       .  A
O68         Ni86   1.896       .  S
O68          C70   1.266       .  A
Ni69         O72   1.937       .  S
Ni69         O74   1.914       .  S
C70          O80   1.277       .  A
C70         C309   1.490       .  S
O71         Ni87   1.903       .  S
O71          C77   1.272       .  A
O72          C77   1.278       .  A
C73         C477   1.484       .  S
O74          C76   1.270       .  A
O75         Ni86   1.896       .  S
C76          O82   1.279       .  A
C76         C336   1.492       .  S
C77        C1273   1.489   1_655  S
H78          O79   0.967       .  S
O79         Ni87   1.904       .  S
O79         Ni81   1.901       .  S
O79         Ni86   1.891       .  S
O80         Ni81   1.949       .  S
Ni81         O85   1.917       .  S
Ni81         O83   1.949       .  S
O82         Ni87   1.946       .  S
C84          O85   1.275       .  A
C84         C321   1.475       .  S
C89          C90   1.542       .  S
C89          C95   1.540       .  S
C89          C93   1.540       .  S
C89         C408   1.549       .  S
C90          H97   1.086       .  S
C90          C91   1.365       .  D
C91          C92   1.544       .  S
C91         C393   1.496       .  S
C92          C96   1.543       .  S
C92          C94   1.553       .  S
C92          H98   1.105       .  S
C93          H99   1.082       .  S
C93          C94   1.378       .  D
C95         H100   1.078       .  S
C95          C96   1.363       .  D
C96         C324   1.493       .  S
C101        C102   1.524       .  S
C101        C107   1.538       .  S
C101        C105   1.543       .  S
C101        C372   1.534       .  S
C102        H109   1.087       .  S
C102        C103   1.358       .  D
C103        C104   1.554       .  S
C103        C191   1.487       .  S
C104        C108   1.543       .  S
C104        C106   1.553       .  S
C104        H110   1.110       .  S
C105        H111   1.083       .  S
C105        C106   1.370       .  D
C106        C360   1.499       .  S
C107        H112   1.086       .  S
C107        C108   1.368       .  D
C108        C288   1.487       .  S
C113        C114   1.542       .  S
C113        C119   1.538       .  S
C113        C117   1.531       .  S
C113        C300   1.529       .  S
C114        H121   1.085       .  S
C114        C115   1.364       .  D
C115        C116   1.542       .  S
C115        C312   1.488       .  S
C116        C120   1.542       .  S
C116        C118   1.549       .  S
C116        H122   1.104       .  S
C117        H123   1.082       .  S
C117        C118   1.371       .  D
C118        C153   1.499       .  S
C119        H124   1.084       .  S
C119        C120   1.358       .  D
C120        C273   1.485       .  S
O125       Ni131   1.901       .  S
O125        C146   1.266       .  A
O126       Ni149   1.897       .  S
O126        C135   1.265       .  A
O127       Ni131   1.916       .  S
O127       Ni149   1.910       .  S
O127       Ni143   1.944       .  S
O127        H150   0.966       .  S
C128        O145   1.278       .  A
C128        O137   1.277       .  A
C128        C468   1.505       .  S
O129       Ni148   1.938       .  S
O129        C135   1.274       .  A
O130       Ni148   1.917       .  S
O130        C132   1.272       .  A
Ni131       O134   1.928       .  S
Ni131       O136   1.899       .  S
C132        O142   1.276       .  A
C132        C264   1.497       .  S
O133       Ni149   1.920       .  S
O133        C139   1.265       .  A
O134        C139   1.268       .  A
C135        C240   1.471       .  S
O136        C138   1.270       .  A
O137       Ni148   1.940       .  S
C138        O144   1.286       .  A
C138        C453   1.492       .  S
C139        C249   1.483       .  S
H140        O141   0.965       .  S
O141       Ni149   1.913       .  S
O141       Ni143   1.907       .  S
O141       Ni148   1.920       .  S
O142       Ni143   1.941       .  S
Ni143       O147   1.919       .  S
Ni143       O145   1.931       .  S
O144       Ni149   1.972       .  S
C146        O147   1.272       .  A
C146        C276   1.475       .  S
C151        C152   1.534       .  S
C151        C157   1.546       .  S
C151        C155   1.544       .  S
C151        C216   1.541       .  S
C152        H159   1.081       .  S
C152        C153   1.371       .  D
C153        C154   1.547       .  S
C154        C158   1.539       .  S
C154        C156   1.530       .  S
C154        H160   1.105       .  S
C155        H161   1.081       .  S
C155        C156   1.359       .  D
C156        C225   1.480       .  S
C157        H162   1.085       .  S
C157        C158   1.370       .  D
C158        C237   1.490       .  S
O163       Ni169   1.914       .  S
O163        C184   1.266       .  A
O164       Ni187   1.961       .  S
O164        C173   1.283       .  A
O165       Ni169   1.875       .  S
O165       Ni187   1.910       .  S
O165       Ni181   1.911       .  S
O165        H188   0.966       .  S
C166        O183   1.281       .  A
C166        O175   1.278       .  A
C166       C1396   1.470       .  S
O167       Ni186   1.897       .  S
O167        C173   1.262       .  A
O168       Ni186   1.899       .  S
O168        C170   1.266       .  A
Ni169       O172   1.902       .  S
Ni169       O174   1.891       .  S
C170        O180   1.272       .  A
C170       C1204   1.483       .  S
O171       Ni187   1.949       .  S
O171        C177   1.289       .  A
O172        C177   1.275       .  A
C173        C201   1.499       .  S
O174        C176   1.266       .  A
O175       Ni186   1.916       .  S
C176        O182   1.280       .  A
C176        C432   1.482       .  S
C177        C213   1.469       .  S
H178        O179   0.965       .  S
O179       Ni187   1.932       .  S
O179       Ni181   1.899       .  S
O179       Ni186   1.880       .  S
O180       Ni181   1.933       .  S
Ni181       O185   1.926       .  S
Ni181       O183   1.933       .  S
O182       Ni187   1.958       .  S
C184        O185   1.271       .  A
C184        C285   1.469       .  S
C189        C190   1.544       .  S
C189        C195   1.526       .  S
C189        C193   1.536       .  S
C189        C252   1.538       .  S
C190        H197   1.085       .  S
C190        C191   1.377       .  D
C191        C192   1.544       .  S
C192        C196   1.556       .  S
C192        C194   1.549       .  S
C192        H198   1.110       .  S
C193        H199   1.085       .  S
C193        C194   1.364       .  D
C194        C261   1.486       .  S
C195        H200   1.088       .  S
C195        C196   1.357       .  D
C196        C204   1.496       .  S
C201        C202   1.417       .  A
C201        C206   1.406       .  A
C202        C691   1.400       .  A
C202        H207   1.083       .  S
C203        C204   1.399       .  A
C203        C690   1.400   1_554  A
C203        O208   1.371       .  S
C204        C205   1.416       .  A
C205        C694   1.409   1_554  A
C205        H209   1.083       .  S
C206        C693   1.409       .  A
C206        O210   1.371       .  S
O208        H700   0.992       .  S
O210        H211   0.992       .  S
H212        O696   0.992       .  S
C213        C214   1.403       .  A
C213        C218   1.400       .  A
C214        C215   1.405       .  A
C214        H219   1.084       .  S
C215        C216   1.416       .  A
C215        O220   1.373       .  S
C216        C217   1.415       .  A
C217        C218   1.399       .  A
C217        H221   1.075       .  S
C218        O222   1.372       .  S
O220        H224   0.992       .  S
O222        H223   0.991       .  S
C225        C226   1.404       .  A
C225        C230   1.403       .  A
C226        C227   1.407       .  A
C226        H231   1.084       .  S
C227        C228   1.412       .  A
C227        O232   1.371       .  S
C228       C1146   1.486   1_545  S
C228        C229   1.408       .  A
C229        C230   1.398       .  A
C229       H1209   1.084       .  S
C230        O234   1.372       .  S
O232        H236   0.991   1_545  S
H233       C1205   1.084       .  S
O234        H235   0.992       .  S
C237        C238   1.408       .  A
C237        C242   1.411       .  A
C238        C239   1.405       .  A
C238        H243   1.083       .  S
C239        C240   1.407       .  A
C239        O244   1.371       .  S
C240        C241   1.398       .  A
C241        C242   1.399       .  A
C241        H245   1.084       .  S
C242        O246   1.372       .  S
O244        H248   0.992       .  S
O246        H247   0.992       .  S
C249        C250   1.399       .  A
C249        C254   1.406       .  A
C250        C251   1.395       .  A
C250        H255   1.085       .  S
C251        C252   1.422       .  A
C251        O256   1.371       .  S
C252        C253   1.416       .  A
C253        C254   1.409       .  A
C253        H257   1.081       .  S
C254        O258   1.371       .  S
O256        H260   0.992       .  S
O258        H259   0.991       .  S
C261        C262   1.403       .  A
C261        C266   1.406       .  A
C262       C1239   1.408       .  A
C262        H267   1.083       .  S
C263        C264   1.415       .  A
C263       C1238   1.405   1_545  A
C263        O268   1.372       .  S
C264       C1241   1.409       .  A
C265        C266   1.405       .  A
C265       C1240   1.407       .  A
C265       H1245   1.084       .  S
C266        O270   1.372       .  S
O268        H272   0.992       .  S
H269       C1241   1.083       .  S
O270        H271   0.991       .  S
C273        C274   1.409       .  A
C273        C278   1.406       .  A
C274        C275   1.401       .  A
C274        H279   1.083       .  S
C275        C764   1.404       .  A
C275        O768   1.370       .  S
C276        C763   1.404   1_554  A
C276        C765   1.405   1_554  A
C277        C278   1.399       .  A
C277        C764   1.403       .  A
C277        H281   1.084       .  S
C278        O282   1.371       .  S
O280        C763   1.370   1_554  S
O280        H772   0.992       .  S
O282        H283   0.992       .  S
H284        O768   0.991       .  S
C285        C286   1.404       .  A
C285        C290   1.405       .  A
C286        C287   1.407       .  A
C286        H291   1.084       .  S
C287        C288   1.409       .  A
C287        O292   1.371       .  S
C288        C289   1.405       .  A
C289        C290   1.396       .  A
C289        H293   1.084       .  S
C290        O294   1.372       .  S
O292        H296   0.991       .  S
O294        H295   0.992       .  S
C297       C1053   1.480   1_455  S
C297        C298   1.406   1_565  A
C297        C302   1.407       .  A
C298        C299   1.398       .  A
C298        H303   1.083   1_455  S
C299        C300   1.412       .  A
C299        O304   1.371       .  S
C300        C301   1.411       .  A
C301        C302   1.396   1_545  A
C301        H305   1.081       .  S
C302       O1282   1.372       .  S
O304        H308   0.991       .  S
O306       C1278   1.372       .  S
O306       H1283   0.992       .  S
H307       O1282   0.992       .  S
C309        C310   1.409   1_655  A
C309        C314   1.410   1_655  A
C310        C311   1.398       .  A
C310        H315   1.084       .  S
C311        C312   1.405       .  A
C311        O316   1.372       .  S
C312        C313   1.409       .  A
C313        C314   1.408       .  A
C313        H317   1.084       .  S
C314        O318   1.371   1_455  S
O316        H320   0.992       .  S
O318        H319   0.992       .  S
C321        C322   1.400       .  A
C321        C326   1.408       .  A
C322        C323   1.405       .  A
C322        H327   1.084       .  S
C323        C324   1.416       .  A
C323        O328   1.373       .  S
C324        C325   1.403       .  A
C325        C326   1.401       .  A
C325        H329   1.083       .  S
C326        O330   1.372       .  S
O328        H332   0.992       .  S
O330        H331   0.992       .  S
C333        C334   1.408       .  A
C333        C338   1.422       .  A
C334       C1311   1.410   1_545  A
C334        H339   1.080       .  S
C335        C336   1.414       .  A
C335       C1310   1.414       .  A
C335        O340   1.371       .  S
C336       C1313   1.399       .  A
C337        C338   1.394       .  A
C337       C1312   1.397   1_545  A
C337        H341   1.084       .  S
C338        O342   1.374       .  S
O340        H344   0.992       .  S
O342        H343   0.992       .  S
C345        C346   1.408       .  A
C345        C350   1.404       .  A
C346        C347   1.405       .  A
C346        H351   1.083       .  S
C347        C348   1.411       .  A
C347        O352   1.372       .  S
C348        C349   1.410       .  A
C349        C350   1.394       .  A
C349        H353   1.084       .  S
C350        O354   1.372       .  S
O352        H356   0.992       .  S
O354        H355   0.992       .  S
C357        C358   1.408       .  A
C357       C1338   1.413       .  A
C358       C1335   1.407   1_545  A
C358        H363   1.083       .  S
C359        C360   1.411       .  A
C359       C1334   1.404       .  A
C359       O1340   1.368       .  S
C360        C361   1.406       .  A
C361        C362   1.406       .  A
C361        H365   1.084       .  S
C362       C1333   1.415       .  A
C362        O366   1.371       .  S
O364       C1335   1.370       .  S
O364        H368   0.992       .  S
O366        H367   0.992       .  S
C369        C370   1.401       .  A
C369        C374   1.410       .  A
C370        C371   1.402       .  A
C370        H375   1.084       .  S
C371        C372   1.419       .  A
C371        O376   1.372       .  S
C372        C373   1.409       .  A
C373        C374   1.398       .  A
C373        H377   1.077       .  S
C374        O378   1.372       .  S
O376        H380   0.992       .  S
O378        H379   0.992       .  S
C381        C870   1.398       .  A
C381        C874   1.408       .  A
C382        C383   1.397       .  A
C382        C869   1.398       .  A
C382        H875   1.084       .  S
C383        C384   1.417       .  A
C383        O388   1.372       .  S
C384        C385   1.401       .  A
C385        C386   1.396       .  A
C385        H389   1.083       .  S
C386        C869   1.410       .  A
C386        O390   1.372       .  S
H387        C870   1.084   1_554  S
O388        H392   0.992       .  S
O390        H391   0.992       .  S
C393        C394   1.406       .  A
C393        C398   1.412       .  A
C394        C395   1.398       .  A
C394        H399   1.083       .  S
C395       C1372   1.411       .  A
C395        O400   1.373       .  S
C396        C397   1.405       .  A
C396       C1371   1.411       .  A
C397       C1374   1.411       .  A
C397        H401   1.083   1_565  S
C398       C1373   1.411       .  A
C398        O402   1.372       .  S
O400        H404   0.992       .  S
O402        H403   0.992       .  S
C405        C406   1.402       .  A
C405        C410   1.412       .  A
C406        C407   1.410       .  A
C406        H411   1.084       .  S
C407        C408   1.421       .  A
C407        O412   1.373       .  S
C408        C409   1.410       .  A
C409        C410   1.403       .  A
C409        H413   1.083       .  S
C410        O414   1.372       .  S
O412        H416   0.993       .  S
O414        H415   0.991       .  S
C417        C418   1.402       .  A
C417        C422   1.408       .  A
C418        C419   1.400       .  A
C418        H423   1.084       .  S
C419        C420   1.408       .  A
C419       O1400   1.372       .  S
C420       C1142   1.468   1_545  S
C420        C421   1.402       .  A
C421        C422   1.398       .  A
C421        H425   1.084   1_545  S
C422        O426   1.372       .  S
O424       C1395   1.372       .  S
O424        H428   0.992       .  S
O426        H427   0.992       .  S
C429        C430   1.410       .  A
C429        C434   1.419       .  A
C430        C431   1.397       .  A
C430        H435   1.080       .  S
C431        C432   1.406       .  A
C431        O436   1.374       .  S
C432        C433   1.403       .  A
C433        C434   1.415       .  A
C433        H437   1.083       .  S
C434        O438   1.373       .  S
O436        H440   0.992       .  S
O438        H439   0.992       .  S
C441        C442   1.403       .  A
C441        C446   1.415       .  A
C442        C443   1.394       .  A
C442        H447   1.083       .  S
C443        C444   1.403       .  A
C443        O448   1.372       .  S
C444        C445   1.396       .  A
C445        C446   1.397       .  A
C445        H449   1.084       .  S
C446        O450   1.372       .  S
O448        H452   0.992       .  S
O450        H451   0.992       .  S
C453        C454   1.403       .  A
C453        C458   1.412       .  A
C454        C455   1.407       .  A
C454        H459   1.084       .  S
C455        C456   1.419       .  A
C455        O460   1.373       .  S
C456        C457   1.406       .  A
C457        C458   1.404       .  A
C457        H461   1.078       .  S
C458        O462   1.372       .  S
O460        H464   0.993       .  S
O462        H463   0.992       .  S
C465        C466   1.414       .  A
C465        C470   1.419       .  A
C466       C1443   1.399       .  A
C466        H471   1.082       .  S
C467        C468   1.410       .  A
C467       C1442   1.409   1_545  A
C467        O472   1.372       .  S
C468       C1445   1.410   1_545  A
C469        C470   1.409       .  A
C469       C1444   1.406       .  A
C469        H473   1.083       .  S
C470        O474   1.370       .  S
O472        H476   0.991       .  S
O474        H475   0.992       .  S
C477        C478   1.404       .  A
C477        C482   1.416       .  A
C478        C967   1.402       .  A
C478        H483   1.083       .  S
C479        C480   1.414       .  A
C479        C966   1.405   1_554  A
C479        O484   1.372       .  S
C480        C481   1.397       .  A
C481        C970   1.399   1_554  A
C481        H485   1.080       .  S
C482        C969   1.397       .  A
C482        O486   1.372       .  S
O484        H488   0.992       .  S
O486        H487   0.992   1_655  S
C489        C490   1.543   1_455  S
C489        C495   1.536   1_455  S
C489        C493   1.543       .  S
C489        C953   1.548       .  S
C490        H497   1.082       .  S
C490        C491   1.378       .  D
C491        C492   1.547       .  S
C491        C582   1.510       .  S
C492        C496   1.542       .  S
C492        C494   1.547   1_655  S
C492        H498   1.102       .  S
C493        H499   1.081       .  S
C493        C494   1.370       .  D
C494        C944   1.507       .  S
C495        H500   1.085   1_655  S
C495        C496   1.358       .  D
C496        C968   1.482       .  S
C501        C502   1.542       .  S
C501        C507   1.546       .  S
C501        C505   1.541       .  S
C501        C917   1.548       .  S
C502        H509   1.084       .  S
C502        C503   1.361       .  D
C503        C504   1.524       .  S
C503        C905   1.468       .  S
C504        C508   1.534       .  S
C504        C506   1.533       .  S
C504        H510   1.106       .  S
C505        H511   1.081       .  S
C505        C506   1.383       .  D
C506        C541   1.508       .  S
C507        H512   1.083       .  S
C507        C508   1.367       .  D
C508        C929   1.481       .  S
O513       Ni519   1.923       .  S
O513        C534   1.269       .  A
O514       Ni537   1.911       .  S
O514        C523   1.270       .  A
O515       Ni519   1.918       .  S
O515       Ni537   1.905       .  S
O515       Ni531   1.905       .  S
O515        H538   0.965       .  S
C516        O533   1.266       .  A
C516        O525   1.268       .  A
C516        C857   1.492       .  S
O517       Ni536   1.904       .  S
O517        C523   1.267       .  A
O518       Ni536   1.903       .  S
O518        C520   1.271       .  A
Ni519       O522   1.918       .  S
Ni519       O524   1.910       .  S
C520        O530   1.281       .  A
C520        C893   1.487       .  S
O521       Ni537   1.934       .  S
O521        C527   1.278       .  A
O522        C527   1.273       .  A
C523        C869   1.468       .  S
O524        C526   1.270       .  A
O525       Ni536   1.925       .  S
C526        O532   1.276       .  A
C526        C845   1.495       .  S
C527        C884   1.482   1_545  S
H528        O529   0.967       .  S
O529       Ni537   1.944       .  S
O529       Ni531   1.911       .  S
O529       Ni536   1.926       .  S
O530       Ni531   1.955       .  S
Ni531       O535   1.891       .  S
Ni531       O533   1.912       .  S
O532       Ni537   1.947       .  S
C534        O535   1.262       .  A
C534        C932   1.458       .  S
C539        C540   1.556       .  S
C539        C545   1.531       .  S
C539        C543   1.538       .  S
C539        C821   1.539       .  S
C540        H547   1.080       .  S
C540        C541   1.390       .  D
C541        C542   1.538       .  S
C542        C546   1.536       .  S
C542        C544   1.533       .  S
C542        H548   1.101       .  S
C543        H549   1.086       .  S
C543        C544   1.361       .  D
C544        C833   1.485       .  S
C545        H550   1.086       .  S
C545        C546   1.355       .  D
C546        C872   1.482       .  S
O551       Ni557   1.931       .  S
O551        C572   1.275       .  A
O552       Ni575   1.937       .  S
O552        C561   1.274       .  A
O553       Ni557   1.909       .  S
O553       Ni575   1.911       .  S
O553       Ni569   1.925       .  S
O553        H576   0.967       .  S
C554        O571   1.284       .  A
C554        O563   1.275       .  A
C554        C836   1.487       .  S
O555       Ni574   1.908       .  S
O555        C561   1.263       .  A
O556       Ni574   1.900       .  S
O556        C558   1.267       .  A
Ni557       O560   1.942       .  S
Ni557       O562   1.918       .  S
C558        O568   1.278       .  A
C558        C797   1.491       .  S
O559       Ni575   1.902       .  S
O559        C565   1.273       .  A
O560        C565   1.279       .  A
C561        C965   1.489       .  S
O562        C564   1.270       .  A
O563       Ni574   1.898       .  S
C564        O570   1.279       .  A
C564        C824   1.490       .  S
C565       C1761   1.491   1_655  S
H566        O567   0.967       .  S
O567       Ni575   1.904       .  S
O567       Ni569   1.899       .  S
O567       Ni574   1.887       .  S
O568       Ni569   1.950       .  S
Ni569       O573   1.913       .  S
Ni569       O571   1.947       .  S
O570       Ni575   1.946       .  S
C572        O573   1.274       .  A
C572        C809   1.475       .  S
C577        C578   1.542       .  S
C577        C583   1.540       .  S
C577        C581   1.537       .  S
C577        C896   1.547       .  S
C578        H585   1.086       .  S
C578        C579   1.364       .  D
C579        C580   1.541       .  S
C579        C881   1.493       .  S
C580        C584   1.546       .  S
C580        C582   1.550       .  S
C580        H586   1.105       .  S
C581        H587   1.081       .  S
C581        C582   1.378       .  D
C583        H588   1.077       .  S
C583        C584   1.366       .  D
C584        C812   1.497       .  S
C589        C590   1.523       .  S
C589        C595   1.540       .  S
C589        C593   1.542       .  S
C589        C860   1.537       .  S
C590        H597   1.087       .  S
C590        C591   1.359       .  D
C591        C592   1.556       .  S
C591        C679   1.491       .  S
C592        C596   1.546       .  S
C592        C594   1.557       .  S
C592        H598   1.110       .  S
C593        H599   1.084       .  S
C593        C594   1.369       .  D
C594        C848   1.507       .  S
C595        H600   1.085       .  S
C595        C596   1.371       .  D
C596        C776   1.492       .  S
C601        C602   1.540       .  S
C601        C607   1.540       .  S
C601        C605   1.535       .  S
C601        C788   1.537       .  S
C602        H609   1.086       .  S
C602        C603   1.365       .  D
C603        C604   1.544       .  S
C603        C800   1.490       .  S
C604        C608   1.541       .  S
C604        C606   1.551       .  S
C604        H610   1.104       .  S
C605        H611   1.082       .  S
C605        C606   1.374       .  D
C606        C641   1.504       .  S
C607        H612   1.080       .  S
C607        C608   1.358       .  D
C608        C761   1.489       .  S
O613       Ni619   1.904       .  S
O613        C634   1.266       .  A
O614       Ni637   1.909       .  S
O614        C623   1.269       .  A
O615       Ni619   1.913       .  S
O615       Ni637   1.918       .  S
O615       Ni631   1.948       .  S
O615        H638   0.967       .  S
C616        O633   1.279       .  A
C616        O625   1.278       .  A
C616        C956   1.498       .  S
O617       Ni636   1.934       .  S
O617        C623   1.273       .  A
O618       Ni636   1.913       .  S
O618        C620   1.269       .  A
Ni619       O622   1.928       .  S
Ni619       O624   1.899       .  S
C620        O630   1.275       .  A
C620        C752   1.496       .  S
O621       Ni637   1.920       .  S
O621        C627   1.267       .  A
O622        C627   1.269       .  A
C623        C728   1.492       .  S
O624        C626   1.271       .  A
O625       Ni636   1.933       .  S
C626        O632   1.285       .  A
C626        C941   1.489       .  S
C627        C737   1.490       .  S
H628        O629   0.965       .  S
O629       Ni637   1.902       .  S
O629       Ni631   1.903       .  S
O629       Ni636   1.911       .  S
O630       Ni631   1.943       .  S
Ni631       O635   1.918       .  S
Ni631       O633   1.930       .  S
O632       Ni637   1.968       .  S
C634        O635   1.270       .  A
C634        C764   1.472       .  S
C639        C640   1.535       .  S
C639        C645   1.547       .  S
C639        C643   1.546       .  S
C639        C704   1.543       .  S
C640        H647   1.081       .  S
C640        C641   1.372       .  D
C641        C642   1.548       .  S
C642        C646   1.541       .  S
C642        C644   1.529       .  S
C642        H648   1.105       .  S
C643        H649   1.082       .  S
C643        C644   1.360       .  D
C644        C713   1.477       .  S
C645        H650   1.085       .  S
C645        C646   1.370       .  D
C646        C725   1.492       .  S
O651       Ni657   1.916       .  S
O651        C672   1.267       .  A
O652       Ni675   1.963       .  S
O652        C661   1.283       .  A
O653       Ni657   1.880       .  S
O653       Ni675   1.915       .  S
O653       Ni669   1.908       .  S
O653        H676   0.966       .  S
C654        O671   1.279       .  A
C654        O663   1.278       .  A
C654       C1884   1.466       .  S
O655       Ni674   1.897       .  S
O655        C661   1.262       .  A
O656       Ni674   1.898       .  S
O656        C658   1.266       .  A
Ni657       O660   1.904       .  S
Ni657       O662   1.894       .  S
C658        O668   1.275       .  A
C658       C1692   1.487       .  S
O659       Ni675   1.952       .  S
O659        C665   1.289       .  A
O660        C665   1.276       .  A
C661        C689   1.500       .  S
O662        C664   1.266       .  A
O663       Ni674   1.914       .  S
C664        O670   1.279       .  A
C664        C920   1.483       .  S
C665        C701   1.475       .  S
H666        O667   0.965       .  S
O667       Ni675   1.930       .  S
O667       Ni669   1.899       .  S
O667       Ni674   1.881       .  S
O668       Ni669   1.940       .  S
Ni669       O673   1.930       .  S
Ni669       O671   1.922       .  S
O670       Ni675   1.959       .  S
C672        O673   1.272       .  A
C672        C773   1.474       .  S
C677        C678   1.548       .  S
C677        C683   1.526       .  S
C677        C681   1.531       .  S
C677        C740   1.537       .  S
C678        H685   1.083       .  S
C678        C679   1.379       .  D
C679        C680   1.544       .  S
C680        C684   1.557       .  S
C680        C682   1.550       .  S
C680        H686   1.110       .  S
C681        H687   1.087       .  S
C681        C682   1.362       .  D
C682        C749   1.484       .  S
C683        H688   1.087       .  S
C683        C684   1.357       .  D
C684        C692   1.496       .  S
C689        C690   1.417       .  A
C689        C694   1.407       .  A
C690        H695   1.083       .  S
C691        C692   1.400       .  A
C691        O696   1.371       .  S
C692        C693   1.417       .  A
C693        H697   1.083       .  S
C694        O698   1.371       .  S
O698        H699   0.992       .  S
C701        C702   1.404       .  A
C701        C706   1.401       .  A
C702        C703   1.404       .  A
C702        H707   1.084       .  S
C703        C704   1.414       .  A
C703        O708   1.373       .  S
C704        C705   1.417       .  A
C705        C706   1.404       .  A
C705        H709   1.078       .  S
C706        O710   1.371       .  S
O708        H712   0.992       .  S
O710        H711   0.992       .  S
C713        C714   1.403       .  A
C713        C718   1.404       .  A
C714        C715   1.402       .  A
C714        H719   1.083       .  S
C715        C716   1.408       .  A
C715        O720   1.371       .  S
C716       C1634   1.480   1_545  S
C716        C717   1.409       .  A
C717        C718   1.401       .  A
C717       H1697   1.084   1_545  S
C718        O722   1.372       .  S
O720        H724   0.991       .  S
H721       C1693   1.084       .  S
O722        H723   0.992       .  S
C725        C726   1.402       .  A
C725        C730   1.411       .  A
C726        C727   1.396       .  A
C726        H731   1.081       .  S
C727        C728   1.414       .  A
C727        O732   1.372       .  S
C728        C729   1.409       .  A
C729        C730   1.406       .  A
C729        H733   1.083       .  S
C730        O734   1.371       .  S
O732        H736   0.992       .  S
O734        H735   0.992       .  S
C737        C738   1.402       .  A
C737        C742   1.410       .  A
C738        C739   1.394       .  A
C738        H743   1.084       .  S
C739        C740   1.419       .  A
C739        O744   1.373       .  S
C740        C741   1.412       .  A
C741        C742   1.410       .  A
C741        H745   1.079       .  S
C742        O746   1.371       .  S
O744        H748   0.992       .  S
O746        H747   0.992       .  S
C749        C750   1.403       .  A
C749        C754   1.407       .  A
C750       C1727   1.408       .  A
C750        H755   1.083       .  S
C751       C1726   1.407   1_545  A
C751        C752   1.415       .  A
C751        O756   1.372       .  S
C752       C1729   1.408       .  A
C753       C1728   1.407       .  A
C753        C754   1.403       .  A
C753       H1733   1.084       .  S
C754        O758   1.372       .  S
O756        H760   0.992       .  S
H757       C1729   1.083       .  S
O758        H759   0.991       .  S
C761        C762   1.410       .  A
C761        C766   1.407       .  A
C762        C763   1.399       .  A
C762        H767   1.083       .  S
C765        C766   1.399       .  A
C765        H769   1.084       .  S
C766        O770   1.370       .  S
O770        H771   0.992       .  S
C773        C774   1.404       .  A
C773        C778   1.406       .  A
C774        C775   1.408       .  A
C774        H779   1.084       .  S
C775        C776   1.410       .  A
C775        O780   1.371       .  S
C776        C777   1.406       .  A
C777        C778   1.398       .  A
C777        H781   1.083       .  S
C778        O782   1.372       .  S
O780        H784   0.991       .  S
O782        H783   0.992       .  S
C785       C1541   1.487   1_455  S
C785        C786   1.407   1_565  A
C785        C790   1.410       .  A
C786        C787   1.403       .  A
C786        H791   1.083   1_455  S
C787        C788   1.414       .  A
C787        O792   1.371       .  S
C788        C789   1.412       .  A
C789        C790   1.394   1_545  A
C789        H793   1.077       .  S
C790       O1770   1.373       .  S
O792        H796   0.992       .  S
O794       C1766   1.372       .  S
O794       H1771   0.992       .  S
H795       O1770   0.992       .  S
C797        C798   1.409   1_655  A
C797        C802   1.410       .  A
C798        C799   1.400       .  A
C798        H803   1.084       .  S
C799        C800   1.405       .  A
C799        O804   1.372       .  S
C800        C801   1.408       .  A
C801        C802   1.409   1_455  A
C801        H805   1.083       .  S
C802        O806   1.371       .  S
O804        H808   0.992       .  S
O806        H807   0.992       .  S
C809        C810   1.399       .  A
C809        C814   1.407       .  A
C810        C811   1.404       .  A
C810        H815   1.084       .  S
C811        C812   1.419       .  A
C811        O816   1.372       .  S
C812        C813   1.405       .  A
C813        C814   1.400       .  A
C813        H817   1.083       .  S
C814        O818   1.372       .  S
O816        H820   0.992       .  S
O818        H819   0.992       .  S
C821        C822   1.411       .  A
C821        C826   1.421       .  A
C822       C1799   1.414   1_545  A
C822        H827   1.080       .  S
C823       C1798   1.415       .  A
C823        C824   1.414       .  A
C823        O828   1.371       .  S
C824       C1801   1.397       .  A
C825       C1800   1.396   1_545  A
C825        C826   1.394       .  A
C825        H829   1.084       .  S
C826        O830   1.373       .  S
O828        H832   0.992       .  S
O830        H831   0.992       .  S
C833        C834   1.408       .  A
C833        C838   1.405       .  A
C834        C835   1.405       .  A
C834        H839   1.083       .  S
C835        C836   1.412       .  A
C835        O840   1.372       .  S
C836        C837   1.409       .  A
C837        C838   1.393       .  A
C837        H841   1.083       .  S
C838        O842   1.372       .  S
O840        H844   0.992       .  S
O842        H843   0.992       .  S
C845        C846   1.408       .  A
C845       C1826   1.412       .  A
C846       C1823   1.405   1_545  A
C846        H851   1.083       .  S
C847       C1822   1.406       .  A
C847        C848   1.411       .  A
C847       O1828   1.368       .  S
C848        C849   1.410       .  A
C849        C850   1.409       .  A
C849        H853   1.084       .  S
C850       C1821   1.415       .  A
C850        O854   1.371       .  S
O852       C1823   1.369       .  S
O852        H856   0.992   1_565  S
O854        H855   0.992       .  S
C857        C858   1.405       .  A
C857        C862   1.412       .  A
C858        C859   1.404       .  A
C858        H863   1.083       .  S
C859        C860   1.419       .  A
C859        O864   1.371       .  S
C860        C861   1.409       .  A
C861        C862   1.398       .  A
C861        H865   1.079       .  S
C862        O866   1.372       .  S
O864        H868   0.992       .  S
O866        H867   0.992       .  S
C870        C871   1.397       .  A
C871        C872   1.416       .  A
C871        O876   1.371       .  S
C872        C873   1.402       .  A
C873        C874   1.395       .  A
C873        H877   1.083       .  S
C874        O878   1.372       .  S
O876        H880   0.992       .  S
O878        H879   0.992       .  S
C881        C882   1.404       .  A
C881        C886   1.412       .  A
C882        C883   1.396       .  A
C882        H887   1.084       .  S
C883       C1860   1.411       .  A
C883        O888   1.373       .  S
C884       C1859   1.410       .  A
C884        C885   1.404       .  A
C885       C1862   1.411       .  A
C885        H889   1.083   1_565  S
C886       C1861   1.411       .  A
C886        O890   1.372       .  S
O888        H892   0.992       .  S
O890        H891   0.992       .  S
C893        C894   1.401       .  A
C893        C898   1.411       .  A
C894        C895   1.409       .  A
C894        H899   1.084       .  S
C895        C896   1.421       .  A
C895        O900   1.373       .  S
C896        C897   1.410       .  A
C897        C898   1.401       .  A
C897        H901   1.083       .  S
C898        O902   1.372       .  S
O900        H904   0.993       .  S
O902        H903   0.991       .  S
C905        C906   1.400       .  A
C905        C910   1.405       .  A
C906        C907   1.398       .  A
C906        H911   1.084       .  S
C907        C908   1.409       .  A
C907       O1888   1.371       .  S
C908       C1630   1.466   1_545  S
C908        C909   1.402       .  A
C909        C910   1.396       .  A
C909        H913   1.084   1_545  S
C910        O914   1.372       .  S
O912       C1883   1.372       .  S
O912        H916   0.992       .  S
O914        H915   0.992       .  S
C917        C918   1.410       .  A
C917        C922   1.422       .  A
C918        C919   1.402       .  A
C918        H923   1.081       .  S
C919        C920   1.407       .  A
C919        O924   1.373       .  S
C920        C921   1.401       .  A
C921        C922   1.413       .  A
C921        H925   1.084       .  S
C922        O926   1.374       .  S
O924        H928   0.992       .  S
O926        H927   0.992       .  S
C929        C930   1.404       .  A
C929        C934   1.414       .  A
C930        C931   1.393       .  A
C930        H935   1.083       .  S
C931        C932   1.402       .  A
C931        O936   1.372       .  S
C932        C933   1.399       .  A
C933        C934   1.400       .  A
C933        H937   1.084       .  S
C934        O938   1.372       .  S
O936        H940   0.992       .  S
O938        H939   0.992       .  S
C941        C942   1.403       .  A
C941        C946   1.412       .  A
C942        C943   1.406       .  A
C942        H947   1.084       .  S
C943        C944   1.418       .  A
C943        O948   1.373       .  S
C944        C945   1.407       .  A
C945        C946   1.402       .  A
C945        H949   1.078   1_455  S
C946        O950   1.372       .  S
O948        H952   0.993       .  S
O950        H951   0.992       .  S
C953        C954   1.414       .  A
C953        C958   1.415       .  A
C954       C1931   1.410       .  A
C954        H959   1.081   1_455  S
C955       C1930   1.406   1_545  A
C955        C956   1.409       .  A
C955        O960   1.372       .  S
C956       C1933   1.408   1_545  A
C957       C1932   1.410       .  A
C957        C958   1.407       .  A
C957        H961   1.083       .  S
C958        O962   1.374       .  S
O960        H964   0.991       .  S
O962        H963   0.992       .  S
C965        C966   1.404       .  A
C965        C970   1.418       .  A
C966        H971   1.083       .  S
C967        C968   1.411       .  A
C967        O972   1.372       .  S
C968        C969   1.397       .  A
C969        H973   1.080       .  S
C970        O974   1.372       .  S
O972        H976   0.992       .  S
O974        H975   0.992   1_655  S
C977        C978   1.545       .  S
C977        C983   1.536       .  S
C977        C981   1.545   1_655  S
C977       C1441   1.550   1_655  S
C978        H985   1.083       .  S
C978        C979   1.380       .  D
C979        C980   1.549       .  S
C979       C1070   1.511       .  S
C980        C984   1.547       .  S
C980        C982   1.545   1_655  S
C980        H986   1.104       .  S
C981        H987   1.082       .  S
C981        C982   1.369       .  D
C982       C1432   1.506       .  S
C983        H988   1.085       .  S
C983        C984   1.357       .  D
C984       C1456   1.486       .  S
C989        C990   1.543       .  S
C989        C995   1.543       .  S
C989        C993   1.541       .  S
C989       C1405   1.552       .  S
C990        H997   1.084       .  S
C990        C991   1.365       .  D
C991        C992   1.531       .  S
C991       C1393   1.479       .  S
C992        C996   1.536       .  S
C992        C994   1.537       .  S
C992        H998   1.107       .  S
C993        H999   1.081       .  S
C993        C994   1.384       .  D
C994       C1029   1.509       .  S
C995       H1000   1.083       .  S
C995        C996   1.362       .  D
C996       C1417   1.480       .  S
O1001     Ni1007   1.919       .  S
O1001      C1022   1.269       .  A
O1002     Ni1025   1.908       .  S
O1002      C1011   1.269       .  A
O1003     Ni1007   1.921       .  S
O1003     Ni1025   1.911       .  S
O1003     Ni1019   1.926       .  S
O1003      H1026   0.965       .  S
C1004      O1021   1.268       .  A
C1004      O1013   1.269       .  A
C1004      C1345   1.483       .  S
O1005     Ni1024   1.910       .  S
O1005      C1011   1.268       .  A
O1006     Ni1024   1.906       .  S
O1006      C1008   1.270       .  A
Ni1007     O1010   1.927       .  S
Ni1007     O1012   1.911       .  S
C1008      O1018   1.279       .  A
C1008      C1381   1.487       .  S
O1009     Ni1025   1.930       .  S
O1009      C1015   1.272       .  A
O1010      C1015   1.270       .  A
C1011      C1357   1.462       .  S
O1012      C1014   1.273       .  A
O1013     Ni1024   1.919       .  S
C1014      O1020   1.281       .  A
C1014      C1333   1.499       .  S
C1015      C1372   1.486       .  S
H1016      O1017   0.967       .  S
O1017     Ni1025   1.925       .  S
O1017     Ni1019   1.906       .  S
O1017     Ni1024   1.924       .  S
O1018     Ni1019   1.947       .  S
Ni1019     O1023   1.900       .  S
Ni1019     O1021   1.912       .  S
O1020     Ni1025   1.957       .  S
C1022      O1023   1.264       .  A
C1022      C1420   1.467       .  S
C1027      C1028   1.558       .  S
C1027      C1033   1.533       .  S
C1027      C1031   1.538       .  S
C1027      C1309   1.542       .  S
C1028      H1035   1.080       .  S
C1028      C1029   1.389       .  D
C1029      C1030   1.537       .  S
C1030      C1034   1.533       .  S
C1030      C1032   1.531       .  S
C1030      H1036   1.101       .  S
C1031      H1037   1.086       .  S
C1031      C1032   1.363       .  D
C1032      C1321   1.482       .  S
C1033      H1038   1.086       .  S
C1033      C1034   1.356       .  D
C1034      C1360   1.479       .  S
O1039     Ni1045   1.920       .  S
O1039      C1060   1.270       .  A
O1040     Ni1063   1.936       .  S
O1040      C1049   1.272       .  A
O1041     Ni1045   1.905       .  S
O1041     Ni1063   1.912       .  S
O1041     Ni1057   1.917       .  S
O1041      H1064   0.967       .  S
C1042      O1059   1.282       .  A
C1042      O1051   1.275       .  A
C1042      C1324   1.483       .  S
O1043     Ni1062   1.906       .  S
O1043      C1049   1.262       .  A
O1044     Ni1062   1.898       .  S
O1044      C1046   1.266       .  A
Ni1045     O1048   1.922       .  S
Ni1045     O1050   1.908       .  S
C1046      O1056   1.274       .  A
C1046      C1285   1.484       .  S
O1047     Ni1063   1.910       .  S
O1047      C1053   1.276       .  A
O1048      C1053   1.276       .  A
C1049      C1453   1.486       .  S
O1050      C1052   1.268       .  A
O1051     Ni1062   1.903       .  S
C1052      O1058   1.276       .  A
C1052      C1312   1.483       .  S
H1054      O1055   0.967       .  S
O1055     Ni1063   1.911       .  S
O1055     Ni1057   1.905       .  S
O1055     Ni1062   1.895       .  S
O1056     Ni1057   1.940       .  S
Ni1057     O1061   1.920       .  S
Ni1057     O1059   1.935       .  S
O1058     Ni1063   1.937       .  S
C1060      O1061   1.273       .  A
C1060      C1297   1.474       .  S
C1065      C1066   1.540       .  S
C1065      C1071   1.538       .  S
C1065      C1069   1.538       .  S
C1065      C1384   1.548       .  S
C1066      H1073   1.086       .  S
C1066      C1067   1.363       .  D
C1067      C1068   1.541       .  S
C1067      C1369   1.490       .  S
C1068      C1072   1.551       .  S
C1068      C1070   1.550       .  S
C1068      H1074   1.105       .  S
C1069      H1075   1.081       .  S
C1069      C1070   1.379       .  D
C1071      H1076   1.074       .  S
C1071      C1072   1.365       .  D
C1072      C1300   1.501       .  S
C1077      C1078   1.519       .  S
C1077      C1083   1.537       .  S
C1077      C1081   1.543       .  S
C1077      C1348   1.532       .  S
C1078      H1085   1.088       .  S
C1078      C1079   1.355       .  D
C1079      C1080   1.554       .  S
C1079      C1167   1.484       .  S
C1080      C1084   1.547       .  S
C1080      C1082   1.554       .  S
C1080      H1086   1.108       .  S
C1081      H1087   1.083       .  S
C1081      C1082   1.371       .  D
C1082      C1336   1.506       .  S
C1083      H1088   1.086       .  S
C1083      C1084   1.372       .  D
C1084      C1264   1.494       .  S
C1089      C1090   1.538       .  S
C1089      C1095   1.541       .  S
C1089      C1093   1.534       .  S
C1089      C1276   1.536       .  S
C1090      H1097   1.086       .  S
C1090      C1091   1.364       .  D
C1091      C1092   1.542       .  S
C1091      C1288   1.489       .  S
C1092      C1096   1.540       .  S
C1092      C1094   1.550       .  S
C1092      H1098   1.102       .  S
C1093      H1099   1.082       .  S
C1093      C1094   1.372       .  D
C1094      C1129   1.500       .  S
C1095      H1100   1.082       .  S
C1095      C1096   1.363       .  D
C1096      C1249   1.492       .  S
O1101     Ni1107   1.909       .  S
O1101      C1122   1.266       .  A
O1102     Ni1125   1.911       .  S
O1102      C1111   1.268       .  A
O1103     Ni1107   1.913       .  S
O1103     Ni1125   1.920       .  S
O1103     Ni1119   1.936       .  S
O1103      H1126   0.966       .  S
C1104      O1121   1.278       .  A
C1104      O1113   1.278       .  A
C1104      C1444   1.487       .  S
O1105     Ni1124   1.937       .  S
O1105      C1111   1.273       .  A
O1106     Ni1124   1.917       .  S
O1106      C1108   1.270       .  A
Ni1107     O1110   1.924       .  S
Ni1107     O1112   1.897       .  S
C1108      O1118   1.274       .  A
C1108      C1240   1.494       .  S
O1109     Ni1125   1.917       .  S
O1109      C1115   1.267       .  A
O1110      C1115   1.270       .  A
C1111      C1216   1.479       .  S
O1112      C1114   1.268       .  A
O1113     Ni1124   1.936       .  S
C1114      O1120   1.287       .  A
C1114      C1429   1.496       .  S
C1115      C1225   1.484       .  S
H1116      O1117   0.965       .  S
O1117     Ni1125   1.904       .  S
O1117     Ni1119   1.905       .  S
O1117     Ni1124   1.919       .  S
O1118     Ni1119   1.937       .  S
Ni1119     O1123   1.912       .  S
Ni1119     O1121   1.920       .  S
O1120     Ni1125   1.978       .  S
C1122      O1123   1.269       .  A
C1122      C1252   1.471       .  S
C1127      C1128   1.533       .  S
C1127      C1133   1.544       .  S
C1127      C1131   1.543       .  S
C1127      C1192   1.541       .  S
C1128      H1135   1.080       .  S
C1128      C1129   1.372       .  D
C1129      C1130   1.550       .  S
C1130      C1134   1.534       .  S
C1130      C1132   1.534       .  S
C1130      H1136   1.107       .  S
C1131      H1137   1.080       .  S
C1131      C1132   1.360       .  D
C1132      C1201   1.480       .  S
C1133      H1138   1.086       .  S
C1133      C1134   1.366       .  D
C1134      C1213   1.477       .  S
O1139     Ni1145   1.915       .  S
O1139      C1160   1.267       .  A
O1140     Ni1163   1.954       .  S
O1140      C1149   1.281       .  A
O1141     Ni1145   1.881       .  S
O1141     Ni1163   1.914       .  S
O1141     Ni1157   1.913       .  S
O1141      H1164   0.966       .  S
C1142      O1159   1.282       .  A
C1142      O1151   1.277       .  A
O1143     Ni1162   1.902       .  S
O1143      C1149   1.264       .  A
O1144     Ni1162   1.902       .  S
O1144      C1146   1.267       .  A
Ni1145     O1148   1.907       .  S
Ni1145     O1150   1.896       .  S
C1146      O1156   1.275       .  A
O1147     Ni1163   1.942       .  S
O1147      C1153   1.285       .  A
O1148      C1153   1.275       .  A
C1149      C1177   1.498       .  S
O1150      C1152   1.267       .  A
O1151     Ni1162   1.910       .  S
C1152      O1158   1.280       .  A
C1152      C1408   1.485       .  S
C1153      C1189   1.468       .  S
H1154      O1155   0.965       .  S
O1155     Ni1163   1.925       .  S
O1155     Ni1157   1.902       .  S
O1155     Ni1162   1.880       .  S
O1156     Ni1157   1.940       .  S
Ni1157     O1161   1.929       .  S
Ni1157     O1159   1.934       .  S
O1158     Ni1163   1.960       .  S
C1160      O1161   1.272       .  A
C1160      C1261   1.473       .  S
C1165      C1166   1.543       .  S
C1165      C1171   1.530       .  S
C1165      C1169   1.529       .  S
C1165      C1228   1.532       .  S
C1166      H1173   1.084       .  S
C1166      C1167   1.377       .  D
C1167      C1168   1.544       .  S
C1168      C1172   1.558       .  S
C1168      C1170   1.547       .  S
C1168      H1174   1.109       .  S
C1169      H1175   1.087       .  S
C1169      C1170   1.359       .  D
C1170      C1237   1.479       .  S
C1171      H1176   1.087       .  S
C1171      C1172   1.360       .  D
C1172      C1180   1.499       .  S
C1177      C1178   1.415       .  A
C1177      C1182   1.407       .  A
C1178      C1667   1.401       .  A
C1178      H1183   1.083       .  S
C1179      C1666   1.401   1_554  A
C1179      C1180   1.401       .  A
C1179      O1184   1.370       .  S
C1180      C1181   1.416       .  A
C1181      C1670   1.411   1_554  A
C1181      H1185   1.083       .  S
C1182      C1669   1.409       .  A
C1182      O1186   1.371       .  S
O1184      H1676   0.992       .  S
O1186      H1187   0.992       .  S
H1188      O1672   0.992       .  S
C1189      C1190   1.401       .  A
C1189      C1194   1.400       .  A
C1190      C1191   1.403       .  A
C1190      H1195   1.084       .  S
C1191      C1192   1.416       .  A
C1191      O1196   1.373       .  S
C1192      C1193   1.416       .  A
C1193      C1194   1.400       .  A
C1193      H1197   1.075       .  S
C1194      O1198   1.372       .  S
O1196      H1200   0.992       .  S
O1198      H1199   0.991       .  S
C1201      C1202   1.403       .  A
C1201      C1206   1.405       .  A
C1202      C1203   1.404       .  A
C1202      H1207   1.079       .  S
C1203      C1204   1.410       .  A
C1203      O1208   1.371       .  S
C1204      C1205   1.408       .  A
C1205      C1206   1.397       .  A
C1206      O1210   1.372       .  S
O1208      H1212   0.991       .  S
O1210      H1211   0.992       .  S
C1213      C1214   1.399       .  A
C1213      C1218   1.407       .  A
C1214      C1215   1.399       .  A
C1214      H1219   1.081       .  S
C1215      C1216   1.410       .  A
C1215      O1220   1.372       .  S
C1216      C1217   1.405       .  A
C1217      C1218   1.404       .  A
C1217      H1221   1.083       .  S
C1218      O1222   1.372       .  S
O1220      H1224   0.992       .  S
O1222      H1223   0.992       .  S
C1225      C1226   1.400       .  A
C1225      C1230   1.410       .  A
C1226      C1227   1.390       .  A
C1226      H1231   1.084       .  S
C1227      C1228   1.418       .  A
C1227      O1232   1.373       .  S
C1228      C1229   1.412       .  A
C1229      C1230   1.410       .  A
C1229      H1233   1.079       .  S
C1230      O1234   1.371       .  S
O1232      H1236   0.992       .  S
O1234      H1235   0.992       .  S
C1237      C1238   1.402       .  A
C1237      C1242   1.405       .  A
C1238      H1243   1.082       .  S
C1239      C1240   1.414       .  A
C1239      O1244   1.372       .  S
C1241      C1242   1.403   1_545  A
C1242      O1246   1.372       .  S
O1244      H1248   0.992       .  S
O1246      H1247   0.992       .  S
C1249      C1250   1.408       .  A
C1249      C1254   1.410       .  A
C1250      C1251   1.398       .  A
C1250      H1255   1.083       .  S
C1251      C1740   1.402       .  A
C1251      O1744   1.369       .  S
C1252      C1739   1.403   1_554  A
C1252      C1741   1.403   1_554  A
C1253      C1740   1.404       .  A
C1253      C1254   1.401       .  A
C1253      H1257   1.084       .  S
C1254      O1258   1.370       .  S
O1256      C1739   1.372   1_554  S
O1256      H1748   0.992       .  S
O1258      H1259   0.992       .  S
H1260      O1744   0.991       .  S
C1261      C1262   1.403       .  A
C1261      C1266   1.405       .  A
C1262      C1263   1.409       .  A
C1262      H1267   1.084       .  S
C1263      C1264   1.412       .  A
C1263      O1268   1.370       .  S
C1264      C1265   1.406       .  A
C1265      C1266   1.396       .  A
C1265      H1269   1.083       .  S
C1266      O1270   1.372       .  S
O1268      H1272   0.992       .  S
O1270      H1271   0.991       .  S
C1273      C1274   1.406       .  A
C1273      C1278   1.410       .  A
C1274      C1275   1.401       .  A
C1274      H1279   1.083   1_455  S
C1275      C1276   1.415       .  A
C1275      O1280   1.371       .  S
C1276      C1277   1.411       .  A
C1277      C1278   1.398       .  A
C1277      H1281   1.079       .  S
O1280      H1284   0.991       .  S
C1285      C1286   1.407   1_655  A
C1285      C1290   1.408       .  A
C1286      C1287   1.399       .  A
C1286      H1291   1.084       .  S
C1287      C1288   1.407       .  A
C1287      O1292   1.371       .  S
C1288      C1289   1.408       .  A
C1289      C1290   1.405   1_455  A
C1289      H1293   1.084       .  S
C1290      O1294   1.371       .  S
O1292      H1296   0.992       .  S
O1294      H1295   0.992       .  S
C1297      C1298   1.396       .  A
C1297      C1302   1.408       .  A
C1298      C1299   1.404       .  A
C1298      H1303   1.084       .  S
C1299      C1300   1.422       .  A
C1299      O1304   1.372       .  S
C1300      C1301   1.405       .  A
C1301      C1302   1.402       .  A
C1301      H1305   1.083       .  S
C1302      O1306   1.372       .  S
O1304      H1308   0.992       .  S
O1306      H1307   0.992       .  S
C1309      C1310   1.411       .  A
C1309      C1314   1.421       .  A
C1310      H1315   1.080       .  S
C1311      C1312   1.413       .  A
C1311      O1316   1.371       .  S
C1313      C1314   1.397       .  A
C1313      H1317   1.084       .  S
C1314      O1318   1.373       .  S
O1316      H1320   0.992       .  S
O1318      H1319   0.992       .  S
C1321      C1322   1.405       .  A
C1321      C1326   1.407       .  A
C1322      C1323   1.401       .  A
C1322      H1327   1.083       .  S
C1323      C1324   1.411       .  A
C1323      O1328   1.372       .  S
C1324      C1325   1.408       .  A
C1325      C1326   1.395       .  A
C1325      H1329   1.084       .  S
C1326      O1330   1.372       .  S
O1328      H1332   0.992       .  S
O1330      H1331   0.992       .  S
C1333      C1334   1.408       .  A
C1334      H1339   1.083       .  S
C1335      C1336   1.413       .  A
C1336      C1337   1.409       .  A
C1337      C1338   1.405   1_565  A
C1337      H1341   1.084       .  S
C1338      O1342   1.371       .  S
O1340      H1344   0.991       .  S
O1342      H1343   0.992       .  S
C1345      C1346   1.401       .  A
C1345      C1350   1.411       .  A
C1346      C1347   1.402       .  A
C1346      H1351   1.084       .  S
C1347      C1348   1.419       .  A
C1347      O1352   1.372       .  S
C1348      C1349   1.408       .  A
C1349      C1350   1.396       .  A
C1349      H1353   1.078       .  S
C1350      O1354   1.371       .  S
O1352      H1356   0.992       .  S
O1354      H1355   0.992       .  S
C1357      C1846   1.397   1_554  A
C1357      C1850   1.408   1_554  A
C1358      C1845   1.399       .  A
C1358      C1359   1.398       .  A
C1358      H1851   1.084       .  S
C1359      C1360   1.413       .  A
C1359      O1364   1.372       .  S
C1360      C1361   1.402       .  A
C1361      C1362   1.396       .  A
C1361      H1365   1.084       .  S
C1362      C1845   1.408       .  A
C1362      O1366   1.372       .  S
H1363      C1846   1.084   1_554  S
O1364      H1368   0.992       .  S
O1366      H1367   0.992       .  S
C1369      C1370   1.402       .  A
C1369      C1374   1.412       .  A
C1370      C1371   1.394       .  A
C1370      H1375   1.084       .  S
C1371      O1376   1.373       .  S
C1372      C1373   1.406       .  A
C1373      H1377   1.083       .  S
C1374      O1378   1.372       .  S
O1376      H1380   0.992       .  S
O1378      H1379   0.992       .  S
C1381      C1382   1.400       .  A
C1381      C1386   1.410       .  A
C1382      C1383   1.406       .  A
C1382      H1387   1.084       .  S
C1383      C1384   1.422       .  A
C1383      O1388   1.372       .  S
C1384      C1385   1.411       .  A
C1385      C1386   1.405       .  A
C1385      H1389   1.083       .  S
C1386      O1390   1.373       .  S
O1388      H1392   0.993       .  S
O1390      H1391   0.991       .  S
C1393      C1394   1.402       .  A
C1393      C1398   1.409       .  A
C1394      C1395   1.399       .  A
C1394      H1399   1.084       .  S
C1395      C1396   1.408       .  A
C1396      C1397   1.402       .  A
C1397      C1398   1.401       .  A
C1397      H1401   1.084       .  S
C1398      O1402   1.372       .  S
O1400      H1404   0.992       .  S
O1402      H1403   0.992       .  S
C1405      C1406   1.412       .  A
C1405      C1410   1.421       .  A
C1406      C1407   1.402       .  A
C1406      H1411   1.081       .  S
C1407      C1408   1.407       .  A
C1407      O1412   1.373       .  S
C1408      C1409   1.403       .  A
C1409      C1410   1.415       .  A
C1409      H1413   1.083       .  S
C1410      O1414   1.373       .  S
O1412      H1416   0.992       .  S
O1414      H1415   0.992       .  S
C1417      C1418   1.402       .  A
C1417      C1422   1.413       .  A
C1418      C1419   1.397       .  A
C1418      H1423   1.084       .  S
C1419      C1420   1.406       .  A
C1419      O1424   1.371       .  S
C1420      C1421   1.400       .  A
C1421      C1422   1.400       .  A
C1421      H1425   1.084       .  S
C1422      O1426   1.372       .  S
O1424      H1428   0.992       .  S
O1426      H1427   0.992       .  S
C1429      C1430   1.404       .  A
C1429      C1434   1.415       .  A
C1430      C1431   1.408       .  A
C1430      H1435   1.083       .  S
C1431      C1432   1.417       .  A
C1431      O1436   1.373       .  S
C1432      C1433   1.405       .  A
C1433      C1434   1.405       .  A
C1433      H1437   1.079   1_455  S
C1434      O1438   1.372       .  S
O1436      H1440   0.992       .  S
O1438      H1439   0.992       .  S
C1441      C1442   1.414       .  A
C1441      C1446   1.416       .  A
C1442      H1447   1.082   1_455  S
C1443      C1444   1.405       .  A
C1443      O1448   1.372       .  S
C1445      C1446   1.409       .  A
C1445      H1449   1.083       .  S
C1446      O1450   1.374       .  S
O1448      H1452   0.992       .  S
O1450      H1451   0.992       .  S
C1453      C1454   1.405       .  A
C1453      C1458   1.416       .  A
C1454      C1943   1.406       .  A
C1454      H1459   1.083       .  S
C1455      C1942   1.406   1_554  A
C1455      C1456   1.414       .  A
C1455      O1460   1.372       .  S
C1456      C1457   1.396       .  A
C1457      C1946   1.397   1_554  A
C1457      H1461   1.080       .  S
C1458      C1945   1.395       .  A
C1458      O1462   1.372       .  S
O1460      H1464   0.992       .  S
O1462      H1463   0.992   1_655  S
C1465      C1466   1.542       .  S
C1465      C1471   1.537       .  S
C1465      C1469   1.545   1_655  S
C1465      C1929   1.546   1_655  S
C1466      H1473   1.083       .  S
C1466      C1467   1.378       .  D
C1467      C1468   1.547       .  S
C1467      C1558   1.505       .  S
C1468      C1472   1.542       .  S
C1468      C1470   1.543   1_655  S
C1468      H1474   1.104       .  S
C1469      H1475   1.081       .  S
C1469      C1470   1.368       .  D
C1470      C1920   1.501       .  S
C1471      H1476   1.085       .  S
C1471      C1472   1.356       .  D
C1472      C1944   1.482       .  S
C1477      C1478   1.543       .  S
C1477      C1483   1.546       .  S
C1477      C1481   1.548       .  S
C1477      C1893   1.556       .  S
C1478      H1485   1.082       .  S
C1478      C1479   1.362       .  D
C1479      C1480   1.523       .  S
C1479      C1881   1.470       .  S
C1480      C1484   1.535       .  S
C1480      C1482   1.533       .  S
C1480      H1486   1.106       .  S
C1481      H1487   1.081       .  S
C1481      C1482   1.385       .  D
C1482      C1517   1.510       .  S
C1483      H1488   1.083       .  S
C1483      C1484   1.365       .  D
C1484      C1905   1.483       .  S
O1489     Ni1495   1.926       .  S
O1489      C1510   1.270       .  A
O1490     Ni1513   1.909       .  S
O1490      C1499   1.270       .  A
O1491     Ni1495   1.918       .  S
O1491     Ni1513   1.910       .  S
O1491     Ni1507   1.909       .  S
O1491      H1514   0.965       .  S
C1492      O1509   1.264       .  A
C1492      O1501   1.269       .  A
C1492      C1833   1.481       .  S
O1493     Ni1512   1.910       .  S
O1493      C1499   1.269       .  A
O1494     Ni1512   1.906       .  S
O1494      C1496   1.271       .  A
Ni1495     O1498   1.922       .  S
Ni1495     O1500   1.912       .  S
C1496      O1506   1.281       .  A
C1496      C1869   1.488       .  S
O1497     Ni1513   1.930       .  S
O1497      C1503   1.275       .  A
O1498      C1503   1.272       .  A
C1499      C1845   1.466       .  S
O1500      C1502   1.272       .  A
O1501     Ni1512   1.932       .  S
C1502      O1508   1.281       .  A
C1502      C1821   1.505       .  S
C1503      C1860   1.484       .  S
H1504      O1505   0.967       .  S
O1505     Ni1513   1.935       .  S
O1505     Ni1507   1.906       .  S
O1505     Ni1512   1.927       .  S
O1506     Ni1507   1.955       .  S
Ni1507     O1511   1.892       .  S
Ni1507     O1509   1.905       .  S
O1508     Ni1513   1.963       .  S
C1510      O1511   1.261       .  A
C1510      C1908   1.463       .  S
C1515      C1516   1.555       .  S
C1515      C1521   1.528       .  S
C1515      C1519   1.537       .  S
C1515      C1797   1.541       .  S
C1516      H1523   1.080       .  S
C1516      C1517   1.392       .  D
C1517      C1518   1.539       .  S
C1518      C1522   1.536       .  S
C1518      C1520   1.533       .  S
C1518      H1524   1.103       .  S
C1519      H1525   1.086       .  S
C1519      C1520   1.362       .  D
C1520      C1809   1.482       .  S
C1521      H1526   1.087       .  S
C1521      C1522   1.354       .  D
C1522      C1848   1.478       .  S
O1527     Ni1533   1.923       .  S
O1527      C1548   1.271       .  A
O1528     Ni1551   1.931       .  S
O1528      C1537   1.271       .  A
O1529     Ni1533   1.910       .  S
O1529     Ni1551   1.909       .  S
O1529     Ni1545   1.921       .  S
O1529      H1552   0.967       .  S
C1530      O1547   1.282       .  A
C1530      O1539   1.276       .  A
C1530      C1812   1.484       .  S
O1531     Ni1550   1.912       .  S
O1531      C1537   1.264       .  A
O1532     Ni1550   1.897       .  S
O1532      C1534   1.266       .  A
Ni1533     O1536   1.936       .  S
Ni1533     O1538   1.911       .  S
C1534      O1544   1.277       .  A
C1534      C1773   1.489       .  S
O1535     Ni1551   1.898       .  S
O1535      C1541   1.272       .  A
O1536      C1541   1.278       .  A
C1537      C1941   1.487       .  S
O1538      C1540   1.268       .  A
O1539     Ni1550   1.904       .  S
C1540      O1546   1.278       .  A
C1540      C1800   1.487       .  S
H1542      O1543   0.967       .  S
O1543     Ni1551   1.905       .  S
O1543     Ni1545   1.904       .  S
O1543     Ni1550   1.895       .  S
O1544     Ni1545   1.948       .  S
Ni1545     O1549   1.918       .  S
Ni1545     O1547   1.936       .  S
O1546     Ni1551   1.941       .  S
C1548      O1549   1.274       .  A
C1548      C1785   1.470       .  S
C1553      C1554   1.543       .  S
C1553      C1559   1.539       .  S
C1553      C1557   1.535       .  S
C1553      C1872   1.545       .  S
C1554      H1561   1.086       .  S
C1554      C1555   1.368       .  D
C1555      C1556   1.541       .  S
C1555      C1857   1.493       .  S
C1556      C1560   1.541       .  S
C1556      C1558   1.547       .  S
C1556      H1562   1.105       .  S
C1557      H1563   1.081       .  S
C1557      C1558   1.376       .  D
C1559      H1564   1.079       .  S
C1559      C1560   1.362       .  D
C1560      C1788   1.488       .  S
C1565      C1566   1.526       .  S
C1565      C1571   1.540       .  S
C1565      C1569   1.541       .  S
C1565      C1836   1.537       .  S
C1566      H1573   1.087       .  S
C1566      C1567   1.358       .  D
C1567      C1568   1.550       .  S
C1567      C1655   1.484       .  S
C1568      C1572   1.544       .  S
C1568      C1570   1.553       .  S
C1568      H1574   1.109       .  S
C1569      H1575   1.080       .  S
C1569      C1570   1.370       .  D
C1570      C1824   1.502       .  S
C1571      H1576   1.086       .  S
C1571      C1572   1.371       .  D
C1572      C1752   1.492       .  S
C1577      C1578   1.539       .  S
C1577      C1583   1.543       .  S
C1577      C1581   1.535       .  S
C1577      C1764   1.536       .  S
C1578      H1585   1.086       .  S
C1578      C1579   1.364       .  D
C1579      C1580   1.542       .  S
C1579      C1776   1.491       .  S
C1580      C1584   1.540       .  S
C1580      C1582   1.551       .  S
C1580      H1586   1.102       .  S
C1581      H1587   1.082       .  S
C1581      C1582   1.372       .  D
C1582      C1617   1.499       .  S
C1583      H1588   1.081       .  S
C1583      C1584   1.361       .  D
C1584      C1737   1.491       .  S
O1589     Ni1595   1.902       .  S
O1589      C1610   1.265       .  A
O1590     Ni1613   1.901       .  S
O1590      C1599   1.265       .  A
O1591     Ni1595   1.915       .  S
O1591     Ni1613   1.920       .  S
O1591     Ni1607   1.948       .  S
O1591      H1614   0.966       .  S
C1592      O1609   1.281       .  A
C1592      O1601   1.279       .  A
C1592      C1932   1.503       .  S
O1593     Ni1612   1.939       .  S
O1593      C1599   1.274       .  A
O1594     Ni1612   1.918       .  S
O1594      C1596   1.270       .  A
Ni1595     O1598   1.915       .  S
Ni1595     O1600   1.899       .  S
C1596      O1606   1.274       .  A
C1596      C1728   1.494       .  S
O1597     Ni1613   1.927       .  S
O1597      C1603   1.267       .  A
O1598      C1603   1.267       .  A
C1599      C1704   1.475       .  S
O1600      C1602   1.271       .  A
O1601     Ni1612   1.936       .  S
C1602      O1608   1.284       .  A
C1602      C1917   1.490       .  S
C1603      C1713   1.485       .  S
H1604      O1605   0.965       .  S
O1605     Ni1613   1.902       .  S
O1605     Ni1607   1.902       .  S
O1605     Ni1612   1.915       .  S
O1606     Ni1607   1.938       .  S
Ni1607     O1611   1.917       .  S
Ni1607     O1609   1.935       .  S
O1608     Ni1613   1.965       .  S
C1610      O1611   1.271       .  A
C1610      C1740   1.473       .  S
C1615      C1616   1.530       .  S
C1615      C1621   1.544       .  S
C1615      C1619   1.545       .  S
C1615      C1680   1.535       .  S
C1616      H1623   1.081       .  S
C1616      C1617   1.371       .  D
C1617      C1618   1.551       .  S
C1618      C1622   1.535       .  S
C1618      C1620   1.535       .  S
C1618      H1624   1.107       .  S
C1619      H1625   1.083       .  S
C1619      C1620   1.363       .  D
C1620      C1689   1.485       .  S
C1621      H1626   1.085       .  S
C1621      C1622   1.363       .  D
C1622      C1701   1.475       .  S
O1627     Ni1633   1.915       .  S
O1627      C1648   1.267       .  A
O1628     Ni1651   1.960       .  S
O1628      C1637   1.282       .  A
O1629     Ni1633   1.880       .  S
O1629     Ni1651   1.914       .  S
O1629     Ni1645   1.911       .  S
O1629      H1652   0.966       .  S
C1630      O1647   1.282       .  A
C1630      O1639   1.277       .  A
O1631     Ni1650   1.899       .  S
O1631      C1637   1.262       .  A
O1632     Ni1650   1.899       .  S
O1632      C1634   1.265       .  A
Ni1633     O1636   1.907       .  S
Ni1633     O1638   1.899       .  S
C1634      O1644   1.275       .  A
O1635     Ni1651   1.941       .  S
O1635      C1641   1.285       .  A
O1636      C1641   1.277       .  A
C1637      C1665   1.501       .  S
O1638      C1640   1.267       .  A
O1639     Ni1650   1.908       .  S
C1640      O1646   1.281       .  A
C1640      C1896   1.487       .  S
C1641      C1677   1.469       .  S
H1642      O1643   0.966       .  S
O1643     Ni1651   1.925       .  S
O1643     Ni1645   1.906       .  S
O1643     Ni1650   1.884       .  S
O1644     Ni1645   1.942       .  S
Ni1645     O1649   1.939       .  S
Ni1645     O1647   1.931       .  S
O1646     Ni1651   1.961       .  S
C1648      O1649   1.275       .  A
C1648      C1749   1.478       .  S
C1653      C1654   1.542       .  S
C1653      C1659   1.532       .  S
C1653      C1657   1.533       .  S
C1653      C1716   1.536       .  S
C1654      H1661   1.084       .  S
C1654      C1655   1.375       .  D
C1655      C1656   1.543       .  S
C1656      C1660   1.556       .  S
C1656      C1658   1.548       .  S
C1656      H1662   1.109       .  S
C1657      H1663   1.086       .  S
C1657      C1658   1.361       .  D
C1658      C1725   1.485       .  S
C1659      H1664   1.087       .  S
C1659      C1660   1.362       .  D
C1660      C1668   1.501       .  S
C1665      C1666   1.416       .  A
C1665      C1670   1.407       .  A
C1666      H1671   1.083       .  S
C1667      C1668   1.403       .  A
C1667      O1672   1.371       .  S
C1668      C1669   1.416       .  A
C1669      H1673   1.083       .  S
C1670      O1674   1.371       .  S
O1674      H1675   0.992       .  S
C1677      C1678   1.402       .  A
C1677      C1682   1.401       .  A
C1678      C1679   1.401       .  A
C1678      H1683   1.084       .  S
C1679      C1680   1.415       .  A
C1679      O1684   1.374       .  S
C1680      C1681   1.415       .  A
C1681      C1682   1.401       .  A
C1681      H1685   1.078       .  S
C1682      O1686   1.371       .  S
O1684      H1688   0.992       .  S
O1686      H1687   0.992       .  S
C1689      C1690   1.403       .  A
C1689      C1694   1.404       .  A
C1690      C1691   1.403       .  A
C1690      H1695   1.074       .  S
C1691      C1692   1.409       .  A
C1691      O1696   1.371       .  S
C1692      C1693   1.410       .  A
C1693      C1694   1.399       .  A
C1694      O1698   1.372       .  S
O1696      H1700   0.991       .  S
O1698      H1699   0.992       .  S
C1701      C1702   1.398       .  A
C1701      C1706   1.406       .  A
C1702      C1703   1.396       .  A
C1702      H1707   1.077       .  S
C1703      C1704   1.408       .  A
C1703      O1708   1.372       .  S
C1704      C1705   1.406       .  A
C1705      C1706   1.403       .  A
C1705      H1709   1.084       .  S
C1706      O1710   1.372       .  S
O1708      H1712   0.992       .  S
O1710      H1711   0.992       .  S
C1713      C1714   1.400       .  A
C1713      C1718   1.409       .  A
C1714      C1715   1.390       .  A
C1714      H1719   1.084       .  S
C1715      C1716   1.417       .  A
C1715      O1720   1.373       .  S
C1716      C1717   1.416       .  A
C1717      C1718   1.412       .  A
C1717      H1721   1.080       .  S
C1718      O1722   1.371       .  S
O1720      H1724   0.992       .  S
O1722      H1723   0.992       .  S
C1725      C1726   1.401       .  A
C1725      C1730   1.407       .  A
C1726      H1731   1.082       .  S
C1727      C1728   1.414       .  A
C1727      O1732   1.372       .  S
C1729      C1730   1.406   1_545  A
C1730      O1734   1.372       .  S
O1732      H1736   0.992       .  S
O1734      H1735   0.992       .  S
C1737      C1738   1.410       .  A
C1737      C1742   1.410       .  A
C1738      C1739   1.400       .  A
C1738      H1743   1.083       .  S
C1741      C1742   1.401       .  A
C1741      H1745   1.084       .  S
C1742      O1746   1.371       .  S
O1746      H1747   0.992       .  S
C1749      C1750   1.406       .  A
C1749      C1754   1.407       .  A
C1750      C1751   1.410       .  A
C1750      H1755   1.084       .  S
C1751      C1752   1.410       .  A
C1751      O1756   1.371       .  S
C1752      C1753   1.405       .  A
C1753      C1754   1.399       .  A
C1753      H1757   1.084       .  S
C1754      O1758   1.372       .  S
O1756      H1760   0.991       .  S
O1758      H1759   0.992       .  S
C1761      C1762   1.408       .  A
C1761      C1766   1.410       .  A
C1762      C1763   1.404       .  A
C1762      H1767   1.083   1_455  S
C1763      C1764   1.415       .  A
C1763      O1768   1.372       .  S
C1764      C1765   1.410       .  A
C1765      C1766   1.396       .  A
C1765      H1769   1.078       .  S
O1768      H1772   0.992       .  S
C1773      C1774   1.409   1_655  A
C1773      C1778   1.409       .  A
C1774      C1775   1.401       .  A
C1774      H1779   1.084       .  S
C1775      C1776   1.407       .  A
C1775      O1780   1.372       .  S
C1776      C1777   1.408       .  A
C1777      C1778   1.407   1_455  A
C1777      H1781   1.084       .  S
C1778      O1782   1.371       .  S
O1780      H1784   0.992       .  S
O1782      H1783   0.992       .  S
C1785      C1786   1.399       .  A
C1785      C1790   1.407       .  A
C1786      C1787   1.404       .  A
C1786      H1791   1.084       .  S
C1787      C1788   1.415       .  A
C1787      O1792   1.373       .  S
C1788      C1789   1.403       .  A
C1789      C1790   1.399       .  A
C1789      H1793   1.083       .  S
C1790      O1794   1.372       .  S
O1792      H1796   0.992       .  S
O1794      H1795   0.992       .  S
C1797      C1798   1.411       .  A
C1797      C1802   1.421       .  A
C1798      H1803   1.080       .  S
C1799      C1800   1.415       .  A
C1799      O1804   1.371       .  S
C1801      C1802   1.395       .  A
C1801      H1805   1.084       .  S
C1802      O1806   1.374       .  S
O1804      H1808   0.992       .  S
O1806      H1807   0.992       .  S
C1809      C1810   1.406       .  A
C1809      C1814   1.406       .  A
C1810      C1811   1.401       .  A
C1810      H1815   1.083       .  S
C1811      C1812   1.411       .  A
C1811      O1816   1.372       .  S
C1812      C1813   1.409       .  A
C1813      C1814   1.396       .  A
C1813      H1817   1.084       .  S
C1814      O1818   1.372       .  S
O1816      H1820   0.992       .  S
O1818      H1819   0.992       .  S
C1821      C1822   1.409       .  A
C1822      H1827   1.083       .  S
C1823      C1824   1.411       .  A
C1824      C1825   1.409       .  A
C1825      C1826   1.403   1_565  A
C1825      H1829   1.084       .  S
C1826      O1830   1.372       .  S
O1828      H1832   0.991       .  S
O1830      H1831   0.992       .  S
C1833      C1834   1.402       .  A
C1833      C1838   1.408       .  A
C1834      C1835   1.403       .  A
C1834      H1839   1.084       .  S
C1835      C1836   1.418       .  A
C1835      O1840   1.373       .  S
C1836      C1837   1.412       .  A
C1837      C1838   1.398       .  A
C1837      H1841   1.075       .  S
C1838      O1842   1.372       .  S
O1840      H1844   0.992       .  S
O1842      H1843   0.992       .  S
C1846      C1847   1.398       .  A
C1847      C1848   1.415       .  A
C1847      O1852   1.372       .  S
C1848      C1849   1.400       .  A
C1849      C1850   1.396       .  A
C1849      H1853   1.084       .  S
C1850      O1854   1.372       .  S
O1852      H1856   0.992       .  S
O1854      H1855   0.992       .  S
C1857      C1858   1.403       .  A
C1857      C1862   1.413       .  A
C1858      C1859   1.396       .  A
C1858      H1863   1.083       .  S
C1859      O1864   1.373       .  S
C1860      C1861   1.406       .  A
C1861      H1865   1.083       .  S
C1862      O1866   1.372       .  S
O1864      H1868   0.992       .  S
O1866      H1867   0.992       .  S
C1869      C1870   1.401       .  A
C1869      C1874   1.411       .  A
C1870      C1871   1.408       .  A
C1870      H1875   1.084       .  S
C1871      C1872   1.421       .  A
C1871      O1876   1.373       .  S
C1872      C1873   1.410       .  A
C1873      C1874   1.403       .  A
C1873      H1877   1.083       .  S
C1874      O1878   1.372       .  S
O1876      H1880   0.993       .  S
O1878      H1879   0.991       .  S
C1881      C1882   1.399       .  A
C1881      C1886   1.407       .  A
C1882      C1883   1.397       .  A
C1882      H1887   1.084       .  S
C1883      C1884   1.410       .  A
C1884      C1885   1.401       .  A
C1885      C1886   1.397       .  A
C1885      H1889   1.084       .  S
C1886      O1890   1.372       .  S
O1888      H1892   0.992       .  S
O1890      H1891   0.992       .  S
C1893      C1894   1.413       .  A
C1893      C1898   1.424       .  A
C1894      C1895   1.405       .  A
C1894      H1899   1.082       .  S
C1895      C1896   1.407       .  A
C1895      O1900   1.372       .  S
C1896      C1897   1.402       .  A
C1897      C1898   1.414       .  A
C1897      H1901   1.084       .  S
C1898      O1902   1.373       .  S
O1900      H1904   0.992       .  S
O1902      H1903   0.993       .  S
C1905      C1906   1.404       .  A
C1905      C1910   1.413       .  A
C1906      C1907   1.395       .  A
C1906      H1911   1.084       .  S
C1907      C1908   1.403       .  A
C1907      O1912   1.372       .  S
C1908      C1909   1.400       .  A
C1909      C1910   1.400       .  A
C1909      H1913   1.084       .  S
C1910      O1914   1.372       .  S
O1912      H1916   0.992       .  S
O1914      H1915   0.992       .  S
C1917      C1918   1.405       .  A
C1917      C1922   1.413       .  A
C1918      C1919   1.407       .  A
C1918      H1923   1.083       .  S
C1919      C1920   1.415       .  A
C1919      O1924   1.373       .  S
C1920      C1921   1.404       .  A
C1921      C1922   1.401       .  A
C1921      H1925   1.077   1_455  S
C1922      O1926   1.372       .  S
O1924      H1928   0.992       .  S
O1926      H1927   0.991       .  S
C1929      C1930   1.414       .  A
C1929      C1934   1.416       .  A
C1930      H1935   1.082   1_455  S
C1931      C1932   1.410       .  A
C1931      O1936   1.373       .  S
C1933      C1934   1.407       .  A
C1933      H1937   1.083       .  S
C1934      O1938   1.373       .  S
O1936      H1940   0.991       .  S
O1938      H1939   0.993       .  S
C1941      C1942   1.405       .  A
C1941      C1946   1.416       .  A
C1942      H1947   1.083       .  S
C1943      C1944   1.412       .  A
C1943      O1948   1.372       .  S
C1944      C1945   1.395       .  A
C1945      H1949   1.078       .  S
C1946      O1950   1.372       .  S
O1948      H1952   0.992       .  S
O1950      H1951   0.992   1_655  S
