geometry optimzed in LAMMPS
_audit_creation_date              2020-11-30 
_audit_creation_method            'lammps2cif' 
_symmetry_space_group_name_H-M    'P1' 
_symmetry_Int_Tables_number       1 
_symmetry_cell_setting            triclinic 
loop_ 
_symmetry_equiv_pos_as_xyz 
  x,y,z 
_cell_length_a                    28.7327113 
_cell_length_b                    36.20075862607748 
_cell_length_c                    37.078343329475466 
_cell_angle_alpha                 90.26351600203874 
_cell_angle_beta                  88.37617398970636 
_cell_angle_gamma                 89.89047882936386 
loop_ 
_atom_site_label 
_atom_site_type_symbol 
_atom_site_fract_x 
_atom_site_fract_y 
_atom_site_fract_z 
_atom_site_charge 
O1          O  0.44508984  0.45463465  0.44434046    -0.74800
O2          O  0.53011411  0.53775580  0.44050153    -0.74900
O3          O  0.53862938  0.46243029  0.44317544    -0.74900
O4          O  0.43567503  0.53028429  0.44070915    -0.75000
O5          O  0.43858657  0.53562622  0.00412386    -0.74900
O6          O  0.54205818  0.46869953  0.00477643    -0.74900
O7          O  0.53132171  0.54278866  0.99957303    -0.74800
O8          O  0.44836313  0.46087381  0.00959884    -0.74900
Ni9        Ni  0.48728574  0.49622276  0.43998672     1.25400
Ni10       Ni  0.49004302  0.50205535  0.00660228     1.25400
C11         C  0.43321541  0.44469893  0.98145834     0.87400
C12         C  0.54176268  0.55318679  0.47022780     0.87300
C13         C  0.55752498  0.45438781  0.97509470     0.87300
C14         C  0.41798283  0.54372079  0.47006355     0.87500
O15         O  0.97785416  0.96182157  0.50825167    -0.74800
O16         O  0.07440136  0.03443998  0.51245409    -0.74900
O17         O  0.07163347  0.95887329  0.51115699    -0.74900
O18         O  0.98129193  0.03674875  0.50967691    -0.75000
O19         O  0.97310163  0.03734550  0.06865632    -0.74900
O20         O  0.06276187  0.95833025  0.06166256    -0.74900
O21         O  0.06710802  0.03406806  0.06458499    -0.74800
O22         O  0.96898863  0.96182030  0.06596871    -0.74900
Ni23       Ni  0.02660416  0.99792497  0.50832665     1.25400
Ni24       Ni  0.01812044  0.99783765  0.06742730     1.25400
C25         C  0.95349562  0.95033424  0.03586179     0.87400
C26         C  0.08152736  0.04768489  0.03443142     0.87300
C27         C  0.07521701  0.94552693  0.03048381     0.87300
C28         C  0.95923779  0.05213655  0.03950278     0.87500
O29         O  0.15617349  0.26110734  0.46586972    -0.81300
O30         O  0.28888591  0.20986357  0.08559807    -0.66000
O31         O  0.22274289  0.26823419  0.01850753    -1.12600
C32         C  0.33612547  0.21665875  0.43546413     1.05600
O33         O  0.35530432  0.23428953  0.06593610    -0.79200
O34         O  0.36446420  0.27840637  0.00858589    -0.66800
Ni35       Ni  0.15711103  0.26434475  0.01447191     1.34900
C36         C  0.34205579  0.29820303  0.49097535     0.84300
O37         O  0.21439597  0.25387192  0.09234209    -0.79700
O38         O  0.14860589  0.27050018  0.06526621    -0.90000
C39         C  0.33191946  0.21601604  0.08921742     0.83900
O40         O  0.15256369  0.21219797  0.01846240    -0.68200
O41         O  0.36059908  0.20907844  0.46256766    -0.87500
C42         C  0.17795491  0.18737392  0.03172177     0.84700
C43         C  0.17270404  0.26604589  0.09314699     1.06300
H44         H  0.28439221  0.19866853  0.00547477     0.38100
O45         O  0.29134710  0.22403912  0.01164205    -1.10100
O46         O  0.30035816  0.29325851  0.48124097    -0.66800
Ni47       Ni  0.25990212  0.25076622  0.47796377     1.26300
O48         O  0.21649319  0.19425579  0.04642396    -0.67000
O49         O  0.29631742  0.23203305  0.43799598    -0.79300
C50         C  0.18244105  0.27338352  0.44060885     0.84100
O51         O  0.22563856  0.27846048  0.44419234    -0.66500
Ni52       Ni  0.35719037  0.22649631  0.01474346     1.27400
Ni53       Ni  0.25364818  0.23827430  0.05265361     1.26100
H54         H  0.22889936  0.29365180  0.02456891     0.38700
O55         O  0.70312417  0.34155644  0.03456165    -0.81300
O56         O  0.80293337  0.18643103  0.04974243    -0.66000
O57         O  0.77153309  0.28607616  0.02725107    -1.12600
C58         C  0.68296995  0.22180285  0.43375325     1.05600
O59         O  0.81814871  0.16915463  0.49129730    -0.79200
O60         O  0.80101437  0.21630292  0.43902398    -0.66800
Ni61       Ni  0.74882524  0.31860812  0.06442144     1.34900
C62         C  0.80230591  0.25103413  0.43516922     0.84300
O63         O  0.82830966  0.25069935  0.07636393    -0.79700
O64         O  0.79295076  0.30092867  0.09876072    -0.90000
C65         C  0.82621183  0.16879323  0.02582093     0.83900
O66         O  0.70247132  0.28581115  0.08310023    -0.68200
O67         O  0.71013246  0.19449580  0.43820515    -0.87500
C68         C  0.70533927  0.25166285  0.09054022     0.84700
C69         C  0.82359756  0.27548574  0.10040782     1.06300
H70         H  0.71694883  0.21346583  0.01399964     0.38100
O71         O  0.74324381  0.21899689  0.50306348    -1.10100
O72         O  0.77532797  0.27336585  0.45224484    -0.66800
Ni73       Ni  0.72631464  0.26785086  0.48863946     1.26300
O74         O  0.73710144  0.23071778  0.07688786    -0.67000
O75         O  0.68448174  0.25143374  0.45243979    -0.79300
C76         C  0.69860014  0.34555588  0.00074822     0.84100
O77         O  0.70806265  0.31739937  0.47726446    -0.66500
Ni78       Ni  0.76293984  0.18391305  0.46698125     1.27400
Ni79       Ni  0.78648709  0.23649601  0.04021299     1.26100
H80         H  0.79949103  0.29723163  0.01717221     0.38700
O81         O  0.80046457  0.84276914  0.48045526    -0.81300
O82         O  0.69096926  0.69329496  0.46675524    -0.66000
O83         O  0.72492039  0.79315622  0.48976147    -1.12600
C84         C  0.80904140  0.72835894  0.08132737     1.05600
O85         O  0.67662750  0.67716023  0.01812098    -0.79200
O86         O  0.69157940  0.72273611  0.07408099    -0.66800
Ni87       Ni  0.74711272  0.82692419  0.45400105     1.34900
C88         C  0.69242745  0.75708625  0.08086344     0.84300
O89         O  0.66831907  0.75891509  0.43845324    -0.79700
O90         O  0.69645410  0.81485565  0.42353383    -0.90000
C91         C  0.66982997  0.67427835  0.98445953     0.83900
O92         O  0.78696446  0.79363400  0.42808511    -0.68200
O93         O  0.78174026  0.70119309  0.07602964    -0.87500
C94         C  0.78720095  0.75892163  0.42333432     0.84700
C95         C  0.66930949  0.78763622  0.41854487     1.06300
H96         H  0.77813991  0.71641002  0.99881210     0.38100
O97         O  0.75082589  0.72699143  0.01066825    -1.10100
O98         O  0.71908008  0.77982433  0.06414060    -0.66800
Ni99       Ni  0.76786112  0.77501056  0.02696665     1.26300
O100        O  0.75890432  0.73711359  0.43967261    -0.67000
O101        O  0.80936028  0.75730136  0.06207529    -0.79300
C102        C  0.81031962  0.84205306  0.01614733     0.84100
O103        O  0.78672777  0.82400291  0.03943833    -0.66500
Ni104      Ni  0.73026219  0.69119041  0.04510040     1.27400
Ni105      Ni  0.70909689  0.74373018  0.47579882     1.26100
H106        H  0.69886365  0.80165639  0.00332297     0.38700
O107        O  0.34153171  0.75199274  0.04751158    -0.81300
O108        O  0.20126027  0.71413283  0.43121494    -0.66000
O109        O  0.27333131  0.76399123  0.99640722    -1.12600
C110        C  0.15791636  0.72137850  0.07966567     1.05600
O111        O  0.14063680  0.74276081  0.45650875    -0.79200
O112        O  0.13679672  0.77913367  0.00645954    -0.66800
Ni113      Ni  0.33944551  0.76208942  0.99684526     1.34900
C114        C  0.16295252  0.80178596  0.02225822     0.84300
O115        O  0.27870390  0.75368245  0.42390235    -0.79700
O116        O  0.34800837  0.76628204  0.44763230    -0.90000
C117        C  0.16090120  0.72794038  0.42922160     0.83900
O118        O  0.34680219  0.71050789  0.98774634    -0.68200
O119        O  0.13190342  0.71987675  0.05244080    -0.87500
C120        C  0.31589090  0.68021001  0.47515191     0.84700
C121        C  0.32072121  0.76464901  0.42112176     1.06300
H122        H  0.20971954  0.69443580  0.00780030     0.38100
O123        O  0.20438433  0.72033453  0.00323498    -1.10100
O124        O  0.20123102  0.79263180  0.03609421    -0.66800
Ni125      Ni  0.23791123  0.74789885  0.03781678     1.26300
O126        O  0.27603932  0.68988006  0.46425493    -0.67000
O127        O  0.20066721  0.73078262  0.07789016    -0.79300
C128        C  0.31855122  0.76782115  0.07289177     0.84100
O129        O  0.27531588  0.77401753  0.07096993    -0.66500
Ni130      Ni  0.13868571  0.72676628  0.00134823     1.27400
Ni131      Ni  0.24218917  0.73637157  0.46430845     1.26100
H132        H  0.26563681  0.78948858  0.99175007     0.38700
O133        O  0.04821052  0.24856866  0.23685967    -0.74800
O134        O  0.95581157  0.24889776  0.31224812    -0.74900
O135        O  0.95492129  0.24645542  0.23894937    -0.74900
O136        O  0.04960224  0.25146291  0.30933500    -0.75000
O137        O  0.04668763  0.31289507  0.30768708    -0.74900
O138        O  0.95195083  0.30801695  0.23768365    -0.74900
O139        O  0.95233475  0.31048891  0.31089234    -0.74800
O140        O  0.04566960  0.31004958  0.23486032    -0.74900
Ni141      Ni  0.00209524  0.24667154  0.27447278     1.25400
Ni142      Ni  0.99900214  0.31259720  0.27276552     1.25400
C143        C  0.06213865  0.27910136  0.22333091     0.87400
C144        C  0.93948066  0.27952913  0.32443171     0.87300
C145        C  0.93877135  0.27650862  0.22608122     0.87300
C146        C  0.06377627  0.28306663  0.32017386     0.87500
O147        O  0.02910460  0.68582203  0.22332115    -0.74800
O148        O  0.93244936  0.69413175  0.29691712    -0.74900
O149        O  0.93535139  0.68962578  0.22291660    -0.74900
O150        O  0.02680501  0.69050923  0.29632302    -0.75000
O151        O  0.03063695  0.75176637  0.29240778    -0.74900
O152        O  0.93938067  0.75080635  0.21996101    -0.74900
O153        O  0.93721895  0.75548795  0.29350209    -0.74800
O154        O  0.03263531  0.74719919  0.22015337    -0.74900
Ni155      Ni  0.98060786  0.68777005  0.26003839     1.25400
Ni156      Ni  0.98487889  0.75342898  0.25640812     1.25400
C157        C  0.04676045  0.71529969  0.20969418     0.87400
C158        C  0.92034727  0.72635454  0.30827374     0.87300
C159        C  0.92369787  0.72007066  0.20813244     0.87300
C160        C  0.04412677  0.72139266  0.30622510     0.87500
O161        O  0.54400321  0.75558858  0.21000942    -0.74800
O162        O  0.44329608  0.75781548  0.27968367    -0.74900
O163        O  0.44977388  0.75528435  0.20726661    -0.74900
O164        O  0.53621558  0.75776844  0.28347986    -0.75000
O165        O  0.53763651  0.81936413  0.28103639    -0.74900
O166        O  0.44870423  0.81687053  0.20580286    -0.74900
O167        O  0.44406316  0.81940491  0.27893605    -0.74800
O168        O  0.54285927  0.81712267  0.20701664    -0.74900
Ni169      Ni  0.49349547  0.75445829  0.24502914     1.25400
Ni170      Ni  0.49344621  0.82044192  0.24305067     1.25400
C171        C  0.55927255  0.78585934  0.19637277     0.87400
C172        C  0.42808521  0.78895034  0.29158431     0.87300
C173        C  0.43411176  0.78552867  0.19463882     0.87300
C174        C  0.54956322  0.78894107  0.29579929     0.87500
O175        O  0.56442140  0.18399298  0.21872246    -0.74800
O176        O  0.46813879  0.17335190  0.29277619    -0.74900
O177        O  0.47066573  0.17374052  0.21946247    -0.74900
O178        O  0.56106037  0.18326754  0.29313712    -0.75000
O179        O  0.55056250  0.24412493  0.29372099    -0.74900
O180        O  0.45992032  0.23477660  0.22093927    -0.74900
O181        O  0.45837487  0.23436968  0.29326536    -0.74800
O182        O  0.55294704  0.24485837  0.21999232    -0.74900
Ni183      Ni  0.51668248  0.17634194  0.25591587     1.25400
Ni184      Ni  0.50533696  0.24162311  0.25690609     1.25400
C185        C  0.57306228  0.21635303  0.20616816     0.87400
C186        C  0.44787544  0.20240039  0.30553881     0.87300
C187        C  0.44963321  0.20277432  0.20880872     0.87300
C188        C  0.56906583  0.21515800  0.30686724     0.87500
C189        C  0.40737542  0.80642309  0.13552306    -0.20700
C190        C  0.39984938  0.78408835  0.16588260    -0.07300
C191        C  0.36126760  0.75977848  0.16730040     0.13600
C192        C  0.33297618  0.75676494  0.13719549    -0.20800
C193        C  0.34305196  0.77695109  0.10584616    -0.07300
C194        C  0.37991678  0.80263236  0.10515627     0.13600
C195        C  0.39056020  0.82576806  0.07225647    -0.24100
H196        H  0.43617161  0.82571125  0.13490881     0.14900
H197        H  0.30428241  0.73734060  0.13746489     0.14900
C198        C  0.34942455  0.73737071  0.20048593    -0.24000
H199        H  0.41985002  0.84509939  0.07668374     0.05100
H200        H  0.35941880  0.84231606  0.06556938     0.08300
H201        H  0.40039829  0.80772759  0.04898224     0.08300
H202        H  0.34500031  0.75599565  0.22422526     0.08300
H203        H  0.37740436  0.71704307  0.20547850     0.08300
H204        H  0.31652708  0.72171231  0.19751768     0.05100
C205        C  0.37166786  0.80495386  0.38365894    -0.20700
C206        C  0.34009832  0.77540709  0.38533129    -0.07300
C207        C  0.33239418  0.75425094  0.35388742     0.13600
C208        C  0.35948861  0.76120904  0.32259629    -0.20800
C209        C  0.39356531  0.78894517  0.32182518    -0.07300
C210        C  0.39844342  0.81212359  0.35229432     0.13600
C211        C  0.43390807  0.84277564  0.35294455    -0.24100
H212        H  0.37690265  0.82152460  0.40763305     0.14900
H213        H  0.35556054  0.74376443  0.29903038     0.14900
C214        C  0.29803954  0.72280924  0.35367223    -0.24000
H215        H  0.43382624  0.85718163  0.37946014     0.05100
H216        H  0.42592537  0.86361123  0.33213135     0.08300
H217        H  0.46938796  0.83141760  0.34771093     0.08300
H218        H  0.26229991  0.73349677  0.35924413     0.08300
H219        H  0.30703564  0.70216786  0.37442789     0.08300
H220        H  0.29801836  0.70845573  0.32713205     0.05100
C221        C  0.07580355  0.68568335  0.15325795    -0.20700
C222        C  0.08185316  0.71273417  0.17990460    -0.07300
C223        C  0.11852971  0.73858425  0.17572949     0.13600
C224        C  0.14541267  0.73870206  0.14359358    -0.20800
C225        C  0.13593244  0.71421131  0.11536648    -0.07300
C226        C  0.10207610  0.68626823  0.12082160     0.13600
C227        C  0.09327150  0.65708442  0.09265808    -0.24100
H228        H  0.04840446  0.66536481  0.15684136     0.14900
H229        H  0.17199116  0.75963183  0.13960002     0.14900
C230        C  0.12952454  0.76623077  0.20480976    -0.24000
H231        H  0.06839125  0.63583578  0.10281391     0.05100
H232        H  0.12643054  0.64292317  0.08498673     0.08300
H233        H  0.07802312  0.66960656  0.06844110     0.08300
H234        H  0.13484223  0.75168344  0.23067657     0.08300
H235        H  0.10084972  0.78659446  0.20820566     0.08300
H236        H  0.16173894  0.78196613  0.19804911     0.05100
C237        C  0.13704386  0.69612176  0.37348649    -0.20700
C238        C  0.13677214  0.72819572  0.39479229    -0.07300
C239        C  0.11056585  0.75920776  0.38424517     0.13600
C240        C  0.08183943  0.75607858  0.35466990    -0.20800
C241        C  0.07874801  0.72296052  0.33501793    -0.07300
C242        C  0.10828839  0.69302502  0.34361130     0.13600
C243        C  0.11029681  0.65801156  0.32147448    -0.24100
H244        H  0.15830163  0.67282899  0.38117488     0.14900
H245        H  0.06047815  0.77953018  0.34762495     0.14900
C246        C  0.11320688  0.79598112  0.40352389    -0.24000
H247        H  0.13787151  0.63896961  0.33065444     0.05100
H248        H  0.11815348  0.66473131  0.29274822     0.08300
H249        H  0.07668519  0.64309611  0.32393432     0.08300
H250        H  0.15009537  0.80487540  0.40485332     0.08300
H251        H  0.09765205  0.79406748  0.43115320     0.08300
H252        H  0.09384502  0.81786791  0.38930560     0.05100
C253        C  0.59391109  0.77339742  0.39016149    -0.20700
C254        C  0.63826833  0.78942330  0.38726803    -0.07300
C255        C  0.65284877  0.80574163  0.35401427     0.13600
C256        C  0.62253306  0.80586534  0.32501191    -0.20800
C257        C  0.57852084  0.78963134  0.32795114    -0.07300
C258        C  0.56363948  0.77361408  0.36111793     0.13600
C259        C  0.51573699  0.75747324  0.36736404    -0.24100
H260        H  0.58245276  0.76101697  0.41546394     0.14900
H261        H  0.63367708  0.81792099  0.29948450     0.14900
C262        C  0.70097675  0.82163436  0.34802698    -0.24000
H263        H  0.51879027  0.72773709  0.37411220     0.05100
H264        H  0.49790572  0.77206590  0.39028508     0.08300
H265        H  0.49325731  0.76004657  0.34379922     0.08300
H266        H  0.70722836  0.83032613  0.31961230     0.08300
H267        H  0.72768037  0.80058643  0.35432589     0.08300
H268        H  0.70542721  0.84646722  0.36521270     0.05100
C269        C  0.63704806  0.76485190  0.17437557    -0.20700
C270        C  0.59593056  0.78409697  0.16752475    -0.07300
C271        C  0.58874273  0.79788705  0.13242963     0.13600
C272        C  0.62220567  0.79086227  0.10468462    -0.20800
C273        C  0.66223051  0.77004023  0.11130532    -0.07300
C274        C  0.67028390  0.75769760  0.14675109     0.13600
C275        C  0.71379343  0.73651538  0.15541769    -0.24100
H276        H  0.64256117  0.75449489  0.20131701     0.14900
H277        H  0.61595905  0.79992230  0.07741873     0.14900
C278        C  0.54441493  0.81772738  0.12365948    -0.24000
H279        H  0.71522965  0.72999905  0.18460793     0.05100
H280        H  0.74492273  0.75321660  0.14799401     0.08300
H281        H  0.71509987  0.71002748  0.14025382     0.08300
H282        H  0.54094779  0.84332684  0.14010334     0.08300
H283        H  0.51425592  0.79940488  0.12955940     0.08300
H284        H  0.54367762  0.82557124  0.09475597     0.05100
C285        C  0.86783242  0.75818196  0.39818165    -0.20700
C286        C  0.82229782  0.74435776  0.39675259    -0.07300
C287        C  0.81015490  0.72169078  0.36727502     0.13600
C288        C  0.84332652  0.71480223  0.33923634    -0.20800
C289        C  0.88794468  0.73052613  0.33984212    -0.07300
C290        C  0.90082109  0.75138620  0.37031503     0.13600
C291        C  0.94958579  0.76615215  0.37382663    -0.24100
H292        H  0.87726867  0.77530935  0.42089959     0.14900
H293        H  0.83376613  0.69847450  0.31602764     0.14900
C294        C  0.76161200  0.70656259  0.36427900    -0.24000
H295        H  0.95418030  0.78026026  0.40015069     0.05100
H296        H  0.95756795  0.78649143  0.35226187     0.08300
H297        H  0.97497101  0.74301085  0.37184934     0.08300
H298        H  0.73600641  0.72958505  0.36440350     0.08300
H299        H  0.75360071  0.68794916  0.38732494     0.08300
H300        H  0.75763575  0.69047481  0.33898121     0.05100
C301        C  0.85344156  0.69196510  0.12578193    -0.20700
C302        C  0.84039736  0.72668416  0.11257718    -0.07300
C303        C  0.85390985  0.75884436  0.13161057     0.13600
C304        C  0.87997813  0.75524142  0.16275910    -0.20800
C305        C  0.89332975  0.72058223  0.17604256    -0.07300
C306        C  0.87968123  0.68836529  0.15704913     0.13600
C307        C  0.89240702  0.64999311  0.16902200    -0.24100
H308        H  0.84290217  0.66730276  0.11150638     0.14900
H309        H  0.88999820  0.78012205  0.17688280     0.21300
C310        C  0.83997293  0.79727768  0.12038529    -0.24000
H311        H  0.87857406  0.62840670  0.15085398     0.05100
H312        H  0.87748898  0.64480717  0.19647470     0.08300
H313        H  0.93085248  0.64682604  0.16885905     0.08300
H314        H  0.80148499  0.79929852  0.11918713     0.08300
H315        H  0.85622681  0.80397478  0.09370831     0.08300
H316        H  0.85155735  0.81870070  0.13968477     0.05100
C317        C  0.64929216  0.20445324  0.17325717    -0.20700
C318        C  0.60528467  0.22150896  0.17442691    -0.07300
C319        C  0.59277568  0.24450026  0.14542636     0.13600
C320        C  0.62540213  0.25184764  0.11752634    -0.20800
C321        C  0.67046628  0.23680893  0.11730583    -0.07300
C322        C  0.68222344  0.21201071  0.14520511     0.13600
C323        C  0.73005383  0.19501149  0.14669495    -0.24100
H324        H  0.65865803  0.18643823  0.19517456     0.14900
H325        H  0.61595514  0.27037569  0.09602668     0.14900
C326        C  0.54466956  0.26104945  0.14327695    -0.24000
H327        H  0.73367970  0.17739811  0.17090655     0.05100
H328        H  0.75681775  0.21706563  0.14770467     0.08300
H329        H  0.73669499  0.17735321  0.12254097     0.08300
H330        H  0.53848032  0.28132185  0.16540850     0.08300
H331        H  0.51810179  0.23883725  0.14506874     0.08300
H332        H  0.53998823  0.27589051  0.11747555     0.05100
C333        C  0.64458323  0.25185908  0.38264353    -0.20700
C334        C  0.65042627  0.21995292  0.40339301    -0.07300
C335        C  0.62846846  0.18682627  0.39273965     0.13600
C336        C  0.60255797  0.18637385  0.36116794    -0.20800
C337        C  0.59789360  0.21801631  0.33962490    -0.07300
C338        C  0.61882935  0.25145154  0.35100076     0.13600
C339        C  0.61556960  0.28676533  0.32979222    -0.24100
H340        H  0.66159412  0.27718890  0.39067243     0.14900
H341        H  0.58555725  0.16096742  0.35340006     0.14900
C342        C  0.63106541  0.15203851  0.41485242    -0.24000
H343        H  0.63659377  0.30925247  0.34163669     0.05100
H344        H  0.57894785  0.29655159  0.32979015     0.08300
H345        H  0.62875901  0.28212934  0.30169530     0.08300
H346        H  0.61929673  0.15787225  0.44309348     0.08300
H347        H  0.66719535  0.14119171  0.41442253     0.08300
H348        H  0.60852772  0.12988608  0.40413088     0.05100
C349        C  0.91908774  0.25153384  0.16655902    -0.20700
C350        C  0.90704676  0.27487135  0.19558757    -0.07300
C351        C  0.86729258  0.29758592  0.19371007     0.13600
C352        C  0.84114638  0.29699661  0.16236767    -0.20800
C353        C  0.85364985  0.27439542  0.13255751    -0.07300
C354        C  0.89327377  0.25096749  0.13500099     0.13600
C355        C  0.90969216  0.22569983  0.10468919    -0.24100
H356        H  0.94988923  0.23433005  0.16822244     0.14900
H357        H  0.81049214  0.31439224  0.16136540     0.14900
C358        C  0.85145769  0.32168001  0.22502547    -0.24000
H359        H  0.94227579  0.21090250  0.11121484     0.05100
H360        H  0.91696639  0.24199802  0.07987531     0.08300
H361        H  0.88298930  0.20433365  0.09956563     0.08300
H362        H  0.87768970  0.34337587  0.23012361     0.08300
H363        H  0.84631217  0.30453049  0.24957064     0.08300
H364        H  0.81800607  0.33580746  0.21972167     0.05100
C365        C  0.88422340  0.25593709  0.41476503    -0.20700
C366        C  0.83760181  0.26531666  0.40931651    -0.07300
C367        C  0.82528924  0.28308753  0.37710012     0.13600
C368        C  0.85993065  0.28981081  0.35036248    -0.20800
C369        C  0.90603053  0.27840251  0.35512373    -0.07300
C370        C  0.91865322  0.26231821  0.38806163     0.13600
C371        C  0.96838986  0.25160142  0.39496737    -0.24100
H372        H  0.89338382  0.24228326  0.43956160     0.14900
H373        H  0.85056351  0.30200227  0.32491346     0.14900
C374        C  0.77533624  0.29264035  0.36998572    -0.24000
H375        H  0.97231902  0.24068368  0.42266316     0.05100
H376        H  0.99124434  0.27614218  0.39185663     0.08300
H377        H  0.98027247  0.22981523  0.37566995     0.08300
H378        H  0.76190119  0.31239155  0.39078409     0.08300
H379        H  0.75378223  0.26720608  0.37082332     0.08300
H380        H  0.77163432  0.30556017  0.34310272     0.05100
C381        C  0.38578721  0.17798174  0.39439488    -0.20700
C382        C  0.35686406  0.20907412  0.39919613    -0.07300
C383        C  0.35428797  0.23526292  0.37109131     0.13600
C384        C  0.38118582  0.22990918  0.33944240    -0.20800
C385        C  0.41286044  0.20042135  0.33568927    -0.07300
C386        C  0.41439023  0.17354545  0.36327791     0.13600
C387        C  0.44814267  0.14162085  0.36150064    -0.24100
H388        H  0.38796864  0.15810532  0.41606777     0.14900
H389        H  0.37969069  0.25044488  0.31831147     0.14900
C390        C  0.32715457  0.27086137  0.37538590    -0.24000
H391        H  0.44538623  0.12413375  0.38600421     0.05100
H392        H  0.48439905  0.15213869  0.35928800     0.08300
H393        H  0.44079736  0.12381880  0.33789841     0.08300
H394        H  0.33929079  0.28630554  0.39926973     0.08300
H395        H  0.28947025  0.26512283  0.37865844     0.08300
H396        H  0.33182041  0.28909264  0.35155161     0.05100
C397        C  0.34180063  0.22044831  0.15506841    -0.20700
C398        C  0.35567020  0.20467716  0.12191814    -0.07300
C399        C  0.39666986  0.18311564  0.11935876     0.13600
C400        C  0.42532744  0.18074360  0.14920265    -0.20800
C401        C  0.41402682  0.19984619  0.18119120    -0.07300
C402        C  0.37065758  0.21828683  0.18491965     0.13600
C403        C  0.35475242  0.23561308  0.22023670    -0.24100
H404        H  0.30984321  0.23640788  0.15696173     0.14900
H405        H  0.45802109  0.16580368  0.14682697     0.14900
C406        C  0.41051584  0.16307684  0.08495367    -0.24000
H407        H  0.31890630  0.24695563  0.21880853     0.05100
H408        H  0.37808921  0.25866850  0.22750349     0.08300
H409        H  0.35478781  0.21449548  0.24187682     0.08300
H410        H  0.41733946  0.18307725  0.06286743     0.08300
H411        H  0.38207859  0.14414319  0.07721610     0.08300
H412        H  0.44258240  0.14635700  0.08811369     0.05100
C413        C  0.13220775  0.31056680  0.40249771    -0.20700
C414        C  0.16102281  0.27966550  0.40581271    -0.07300
C415        C  0.16095642  0.25165495  0.37932332     0.13600
C416        C  0.13077584  0.25470794  0.35044633    -0.20800
C417        C  0.09978157  0.28465610  0.34799051    -0.07300
C418        C  0.10146823  0.31354530  0.37393088     0.13600
C419        C  0.06923837  0.34645620  0.37326480    -0.24100
H420        H  0.13196688  0.33148941  0.42352962     0.14900
H421        H  0.12998297  0.23273351  0.33051376     0.14900
C422        C  0.19040944  0.21741446  0.38279265    -0.24000
H423        H  0.07416524  0.36514675  0.39668236     0.05100
H424        H  0.03243799  0.33711921  0.37423151     0.08300
H425        H  0.07623300  0.36279756  0.34845556     0.08300
H426        H  0.18063898  0.20273426  0.40808778     0.08300
H427        H  0.22767586  0.22500493  0.38341429     0.08300
H428        H  0.18581528  0.19802989  0.35987243     0.05100
C429        C  0.09050568  0.30468330  0.16542711    -0.20700
C430        C  0.09576415  0.27840007  0.19264171    -0.07300
C431        C  0.13068105  0.25088661  0.18868725     0.13600
C432        C  0.15753747  0.24921548  0.15664111    -0.20800
C433        C  0.14956509  0.27364568  0.12827082    -0.07300
C434        C  0.11659757  0.30251941  0.13308478     0.13600
C435        C  0.10851906  0.33118803  0.10446227    -0.24100
H436        H  0.06409150  0.32596079  0.16868753     0.14900
H437        H  0.18313926  0.22737393  0.15295827     0.14900
C438        C  0.13998347  0.22314613  0.21787334    -0.24000
H439        H  0.08484258  0.35350327  0.11446649     0.05100
H440        H  0.09201757  0.31848318  0.08075273     0.08300
H441        H  0.14211107  0.34410394  0.09608451     0.08300
H442        H  0.11007599  0.20402903  0.22125676     0.08300
H443        H  0.14620138  0.23771310  0.24370860     0.08300
H444        H  0.17117113  0.20598641  0.21119364     0.05100
C445        C  0.88544898  0.08257442  0.06018390    -0.20700
C446        C  0.92816115  0.08460057  0.04097687    -0.07300
C447        C  0.93960803  0.11698456  0.02152708     0.13600
C448        C  0.90625648  0.14500958  0.01888037    -0.20800
C449        C  0.86214236  0.14181167  0.03573757    -0.07300
C450        C  0.85219424  0.11101061  0.05785984     0.13600
C451        C  0.80582385  0.10720949  0.07739206    -0.24100
H452        H  0.87725570  0.05796535  0.07562732     0.14900
H453        H  0.91417119  0.16921079  0.00271095     0.14900
C454        C  0.98711491  0.12232313  0.00390459    -0.24000
H455        H  0.80337863  0.08094156  0.09267998     0.05100
H456        H  0.78585431  0.10935943  0.57174414     0.08300
H457        H  0.80089682  0.13037195  0.09685630     0.08300
H458        H  0.98064585  0.08934228  0.46809419     0.08300
H459        H  0.01427804  0.11950552  0.02443775     0.08300
H460        H  0.99076753  0.15012975  0.99160428     0.05100
C461        C  0.11598522  0.10077220  0.00133035    -0.20700
C462        C  0.11397177  0.07988017  0.03323998    -0.07300
C463        C  0.13979039  0.09220749  0.06309660     0.13600
C464        C  0.16275486  0.12657385  0.06122306    -0.20800
C465        C  0.16056743  0.14885793  0.03041181    -0.07300
C466        C  0.13878203  0.13486827  0.99949189     0.13600
C467        C  0.13971903  0.15549258  0.96417484    -0.24100
H468        H  0.09769018  0.09132661  0.97786919     0.14900
H469        H  0.18065004  0.13687690  0.08456036     0.14900
C470        C  0.14362701  0.06960877  0.09692119    -0.24000
H471        H  0.12483186  0.13881857  0.94209629     0.05100
H472        H  0.17624242  0.16224472  0.95618470     0.08300
H473        H  0.11885197  0.18121925  0.96657109     0.08300
H474        H  0.12677292  0.06085588  0.61773300     0.08300
H475        H  0.10927408  0.06772724  0.11118625     0.08300
H476        H  0.16822411  0.08219551  0.11599682     0.05100
C477        C  0.14080423  0.86046245  0.99340427    -0.20700
C478        C  0.14706643  0.84049805  0.02511715    -0.07300
C479        C  0.13351649  0.85630226  0.05859505     0.13600
C480        C  0.11277161  0.89148644  0.05950983    -0.20800
C481        C  0.10418307  0.91116123  0.02763879    -0.07300
C482        C  0.11967038  0.89552379  0.99401950     0.13600
C483        C  0.11353791  0.91465950  0.95837746    -0.24100
H484        H  0.15132868  0.84793102  0.96782103     0.14900
H485        H  0.10126800  0.90282230  0.08534873     0.14900
C486        C  0.13838900  0.83510595  0.09319675    -0.24000
H487        H  0.13020681  0.89904353  0.93559793     0.05100
H488        H  0.12987633  0.94241869  0.95899924     0.08300
H489        H  0.13163826  0.93557343  0.46803212     0.08300
H490        H  0.17562286  0.82871873  0.09744193     0.08300
H491        H  0.11848696  0.80888463  0.09180165     0.08300
H492        H  0.12492099  0.85103696  0.11695294     0.05100
C493        C  0.88934120  0.86563133  0.00443709    -0.20700
C494        C  0.84887396  0.86661652  0.02648311    -0.07300
C495        C  0.84553059  0.89257219  0.05505357     0.13600
C496        C  0.88121973  0.91892150  0.05878016    -0.20800
C497        C  0.92016846  0.91929476  0.03493113    -0.07300
C498        C  0.92550955  0.89076045  0.00892745     0.13600
C499        C  0.96923930  0.88514663  0.98597726    -0.24100
H500        H  0.89291722  0.84482392  0.98337018     0.14900
H501        H  0.87777797  0.94018955  0.07935521     0.14900
C502        C  0.80360405  0.89381741  0.08031017    -0.24000
H503        H  0.98002246  0.85222473  0.49366789     0.05100
H504        H  0.99846630  0.90286968  0.99413374     0.08300
H505        H  0.96698268  0.88639901  0.46009596     0.08300
H506        H  0.80050587  0.86740281  0.09521093     0.08300
H507        H  0.77164580  0.89837004  0.06477692     0.08300
H508        H  0.80621680  0.91644005  0.10047944     0.05100
C509        C  0.63370312  0.36847424  0.96389544    -0.20700
C510        C  0.66859692  0.37617171  0.98858359    -0.07300
C511        C  0.67049997  0.41175090  0.00443336     0.13600
C512        C  0.63454756  0.43712830  0.99845269    -0.20800
C513        C  0.59748116  0.42837491  0.97610404    -0.07300
C514        C  0.59814887  0.39420466  0.95734101     0.13600
C515        C  0.56013986  0.38380318  0.93206073    -0.24100
H516        H  0.63272233  0.34142921  0.95125638     0.14900
H517        H  0.63497437  0.46384709  0.01177491     0.14900
C518        C  0.71079672  0.42338261  0.02707383    -0.24000
H519        H  0.56526284  0.35554231  0.92082173     0.05100
H520        H  0.55994988  0.40330434  0.90905861     0.08300
H521        H  0.52540963  0.38538926  0.43814993     0.08300
H522        H  0.74397531  0.41940020  0.01141651     0.08300
H523        H  0.69455092  0.39964622  0.55951262     0.08300
H524        H  0.70830208  0.45298247  0.03493174     0.05100
C525        C  0.35074531  0.36360639  0.96463160    -0.20700
C526        C  0.36281051  0.33574456  0.48797992    -0.07300
C527        C  0.38982842  0.35097137  0.51565331     0.13600
C528        C  0.41070334  0.38568406  0.51064683    -0.20800
C529        C  0.40609873  0.40591995  0.47855745    -0.07300
C530        C  0.37345268  0.39770612  0.95949124     0.13600
C531        C  0.36393480  0.41940147  0.92588374    -0.24100
H532        H  0.32838209  0.35314140  0.94387943     0.14900
H533        H  0.43183884  0.39668621  0.53191269     0.14900
C534        C  0.39592776  0.33130021  0.55103601    -0.24000
H535        H  0.33648236  0.40626229  0.90970518     0.05100
H536        H  0.39586147  0.42096806  0.90843306     0.08300
H537        H  0.35584233  0.43903118  0.42233412     0.08300
H538        H  0.41261976  0.30977337  0.05290057     0.08300
H539        H  0.36132066  0.32491404  0.56355879     0.08300
H540        H  0.41532211  0.34841698  0.57047285     0.05100
C541        C  0.38362198  0.59882226  0.00684439    -0.20700
C542        C  0.38231984  0.57414443  0.46935764    -0.07300
C543        C  0.36912360  0.59243852  0.43721229     0.13600
C544        C  0.34334497  0.62560589  0.43970289    -0.20800
C545        C  0.33053398  0.64105178  0.47320265    -0.07300
C546        C  0.35943888  0.63248404  0.00862841     0.13600
C547        C  0.35539455  0.65261955  0.04432535    -0.24100
H548        H  0.40004613  0.58909431  0.03097224     0.14900
H549        H  0.33589217  0.64088263  0.41544545     0.14900
C550        C  0.38328612  0.57850449  0.40013000    -0.24000
H551        H  0.37027578  0.63629359  0.06652926     0.05100
H552        H  0.31816154  0.65801066  0.05135023     0.08300
H553        H  0.37457791  0.67913377  0.04292118     0.08300
H554        H  0.37076119  0.54976106  0.39653064     0.08300
H555        H  0.42170399  0.57963552  0.39634793     0.08300
H556        H  0.36812322  0.59553616  0.37853664     0.05100
C557        C  0.55958911  0.61822117  0.98455299    -0.20700
C558        C  0.57441164  0.58662382  0.96551639    -0.07300
C559        C  0.61845466  0.58642236  0.94756888     0.13600
C560        C  0.64828813  0.61691527  0.95168702    -0.20800
C561        C  0.63462414  0.64729412  0.97319070    -0.07300
C562        C  0.58894196  0.64871271  0.98831057     0.13600
C563        C  0.57107360  0.68234549  0.00855605    -0.24100
H564        H  0.52875370  0.61254835  0.51118331     0.14900
H565        H  0.68325487  0.61608215  0.93994739     0.14900
C566        C  0.63498613  0.55333126  0.92600657    -0.24000
H567        H  0.53963588  0.66890586  0.53900061     0.05100
H568        H  0.57728174  0.70108683  0.51593447     0.08300
H569        H  0.59115760  0.68691653  0.03327542     0.08300
H570        H  0.60371434  0.55783175  0.40186178     0.08300
H571        H  0.63513516  0.52849404  0.94347943     0.08300
H572        H  0.67077766  0.55736898  0.91462758     0.05100
O573        O  0.44482575  0.45646602  0.94990495    -0.74800
O574        O  0.53114275  0.53707116  0.93963821    -0.74900
O575        O  0.53891202  0.46235577  0.94508579    -0.74900
O576        O  0.43728961  0.53193057  0.94435452    -0.75000
O577        O  0.43281831  0.53275608  0.50055665    -0.74900
O578        O  0.53722175  0.46650292  0.50316614    -0.74900
O579        O  0.52600937  0.54094516  0.50050375    -0.74800
O580        O  0.44415680  0.45792446  0.50423860    -0.74900
Ni581      Ni  0.48780592  0.49667378  0.94259196     1.25400
Ni582      Ni  0.48486329  0.49962618  0.50414780     1.25400
C583        C  0.43228069  0.44157795  0.47523032     0.87400
C584        C  0.54456084  0.55362356  0.96812373     0.87300
C585        C  0.55457268  0.45296268  0.47367724     0.87300
C586        C  0.42242145  0.54657421  0.97408450     0.87500
O587        O  0.96749429  0.96462988  0.00594382    -0.74800
O588        O  0.06552227  0.03562457  0.00472014    -0.74900
O589        O  0.06062025  0.96081090  0.00192191    -0.74900
O590        O  0.97245832  0.03959262  0.00856285    -0.75000
O591        O  0.97541932  0.03642276  0.56967962    -0.74900
O592        O  0.06563206  0.95772293  0.57109128    -0.74900
O593        O  0.06914479  0.03387698  0.57229089    -0.74800
O594        O  0.97141462  0.96111856  0.56828119    -0.74900
Ni595      Ni  0.01644703  0.00024731  0.00324217     1.25400
Ni596      Ni  0.02041030  0.99719190  0.57251291     1.25400
C597        C  0.95895085  0.94919177  0.53738938     0.87400
C598        C  0.08612330  0.04775330  0.54297880     0.87300
C599        C  0.08251275  0.94452473  0.54128348     0.87300
C600        C  0.96432992  0.05011029  0.53927995     0.87500
O601        O  0.15929430  0.25841868  0.96311364    -0.81300
O602        O  0.29260569  0.21529870  0.58797538    -0.66000
O603        O  0.22434525  0.26892062  0.51861727    -1.12600
C604        C  0.34095319  0.22600209  0.93634989     1.05600
O605        O  0.36016555  0.23273129  0.56335746    -0.79200
O606        O  0.36726751  0.27233745  0.50275162    -0.66800
Ni607      Ni  0.15827566  0.26444690  0.51748163     1.34900
C608        C  0.33887912  0.30387138  0.99662380     0.84300
O609        O  0.22197102  0.26275945  0.59378445    -0.79700
O610        O  0.15229653  0.26881648  0.56891006    -0.90000
C611        C  0.33621051  0.21960466  0.58952451     0.83900
O612        O  0.15679810  0.21199967  0.51931871    -0.68200
O613        O  0.36478230  0.21844579  0.96385809    -0.87500
C614        C  0.18019260  0.18925750  0.53734269     0.84700
C615        C  0.17882400  0.27076189  0.59572621     1.06300
H616        H  0.28103195  0.19643493  0.50938005     0.38100
O617        O  0.29044181  0.22181105  0.51302890    -1.10100
O618        O  0.29845694  0.29796987  0.98467653    -0.66800
Ni619      Ni  0.26083670  0.25442785  0.97779010     1.26300
O620        O  0.21634085  0.19840396  0.55438602    -0.67000
O621        O  0.30005737  0.23953962  0.93804551    -0.79300
C622        C  0.18396943  0.27569292  0.93994013     0.84100
O623        O  0.22622646  0.28336002  0.94506958    -0.66500
Ni624      Ni  0.35692339  0.22126802  0.51292721     1.27400
Ni625      Ni  0.25665951  0.24149550  0.55406112     1.26100
H626        H  0.23105782  0.29474655  0.52222559     0.38700
O627        O  0.70161289  0.33833740  0.53362107    -0.81300
O628        O  0.80588855  0.18411931  0.54864387    -0.66000
O629        O  0.76941447  0.28269473  0.52478263    -1.12600
C630        C  0.68848372  0.22770457  0.93282521     1.05600
O631        O  0.82138910  0.17528884  0.99252041    -0.79200
O632        O  0.80400827  0.22099808  0.93876568    -0.66800
Ni633      Ni  0.74762971  0.31496961  0.56255740     1.34900
C634        C  0.80794197  0.25575895  0.93638270     0.84300
O635        O  0.83113618  0.24988131  0.57247330    -0.79700
O636        O  0.79206659  0.29728328  0.59675532    -0.90000
C637        C  0.82660752  0.16492825  0.52442963     0.83900
O638        O  0.70145705  0.28170190  0.57990026    -0.68200
O639        O  0.71313307  0.19912237  0.93863635    -0.87500
C640        C  0.70586774  0.24800419  0.58836051     0.84700
C641        C  0.82537668  0.27397850  0.59714419     1.06300
H642        H  0.71636535  0.20835242  0.51529074     0.38100
O643        O  0.74499039  0.22364766  0.00306892    -1.10100
O644        O  0.78292400  0.27835282  0.95481939    -0.66800
Ni645      Ni  0.73117703  0.27293920  0.98885362     1.26300
O646        O  0.73953464  0.22789163  0.57639828    -0.67000
O647        O  0.69192616  0.25796437  0.95036736    -0.79300
C648        C  0.69327736  0.34109996  0.50028843     0.84100
O649        O  0.71595710  0.32290342  0.97784156    -0.66500
Ni650      Ni  0.76614078  0.18885756  0.96738807     1.27400
Ni651      Ni  0.78706487  0.23367443  0.53824864     1.26100
H652        H  0.79615950  0.29437715  0.51334252     0.38700
O653        O  0.80408375  0.83747464  0.98267339    -0.81300
O654        O  0.69083232  0.69455089  0.96140932    -0.66000
O655        O  0.72617261  0.79126052  0.99129599    -1.12600
C656        C  0.81242942  0.73437072  0.58043579     1.05600
O657        O  0.67642222  0.68214797  0.52468017    -0.79200
O658        O  0.69964973  0.72702689  0.58022079    -0.66800
Ni659      Ni  0.74766370  0.82752842  0.95794956     1.34900
C660        C  0.69639551  0.76174318  0.58449342     0.84300
O661        O  0.66935174  0.76219685  0.93794143    -0.79700
O662        O  0.69361162  0.82080181  0.93003890    -0.90000
C663        C  0.66962475  0.67520044  0.49152781     0.83900
O664        O  0.78266553  0.79616349  0.92605149    -0.68200
O665        O  0.78897167  0.70518131  0.57414991    -0.87500
C666        C  0.78439156  0.76158740  0.92061240     0.84700
C667        C  0.66795583  0.79349918  0.92214397     1.06300
H668        H  0.77907685  0.72073672  0.50108142     0.38100
O669        O  0.75122618  0.73074435  0.51264669    -1.10100
O670        O  0.71672809  0.78495435  0.56354837    -0.66800
Ni671      Ni  0.76628480  0.77977082  0.52698134     1.26300
O672        O  0.75913579  0.73854358  0.93812071    -0.67000
O673        O  0.80737606  0.76453771  0.56352269    -0.79300
C674        C  0.80692836  0.84764831  0.51391741     0.84100
O675        O  0.78355256  0.82978044  0.53755191    -0.66500
Ni676      Ni  0.73356135  0.69527811  0.54788322     1.27400
Ni677      Ni  0.70941727  0.74348622  0.97431314     1.26100
H678        H  0.69733366  0.80419308  0.50077893     0.38700
O679        O  0.34540650  0.74216337  0.54814450    -0.81300
O680        O  0.20460921  0.70771314  0.92946361    -0.66000
O681        O  0.27848362  0.76088730  0.49911350    -1.12600
C682        C  0.16278695  0.71584541  0.58270749     1.05600
O683        O  0.13897187  0.73352203  0.95011144    -0.79200
O684        O  0.13891523  0.77842115  0.51985692    -0.66800
Ni685      Ni  0.34394188  0.75422399  0.49798997     1.34900
C686        C  0.16837070  0.80072069  0.53239939     0.84300
O687        O  0.27846263  0.75099254  0.92173562    -0.79700
O688        O  0.34337482  0.77291797  0.94647153    -0.90000
C689        C  0.16260374  0.71702418  0.92552355     0.83900
O690        O  0.34486573  0.70265656  0.48807131    -0.68200
O691        O  0.13710499  0.71297063  0.55540325    -0.87500
C692        C  0.32028166  0.68497806  0.97701531     0.84700
C693        C  0.31834700  0.76612992  0.91943772     1.06300
H694        H  0.21161386  0.69421666  0.50873579     0.38100
O695        O  0.20680955  0.72041242  0.50561349    -1.10100
O696        O  0.20955605  0.79142835  0.54008535    -0.66800
Ni697      Ni  0.24273529  0.74499901  0.54054080     1.26300
O698        O  0.27896101  0.69080564  0.96671208    -0.67000
O699        O  0.20449790  0.72830514  0.58097161    -0.79300
C700        C  0.32549284  0.75865631  0.57467824     0.84100
O701        O  0.28309889  0.76809825  0.57357337    -0.66500
Ni702      Ni  0.14144989  0.72762133  0.50602026     1.27400
Ni703      Ni  0.24114368  0.73498595  0.96215888     1.26100
H704        H  0.27361624  0.78706846  0.49592672     0.38700
O705        O  0.05554730  0.25727463  0.73664914    -0.74800
O706        O  0.95829075  0.25334828  0.80854197    -0.74900
O707        O  0.96191193  0.25286286  0.73463233    -0.74900
O708        O  0.05155489  0.25794236  0.80895268    -0.75000
O709        O  0.04686534  0.31937075  0.80911061    -0.74900
O710        O  0.95693449  0.31415647  0.73500592    -0.74900
O711        O  0.95302032  0.31482841  0.80895492    -0.74800
O712        O  0.05051958  0.31877697  0.73630595    -0.74900
Ni713      Ni  0.00674354  0.25317711  0.77219766     1.25400
Ni714      Ni  0.00144846  0.31899056  0.77233074     1.25400
C715        C  0.06923061  0.28864092  0.72482295     0.87400
C716        C  0.94134647  0.28331865  0.82188033     0.87300
C717        C  0.94550727  0.28284661  0.72168761     0.87300
C718        C  0.06436350  0.28942901  0.82102413     0.87500
O719        O  0.02658344  0.68130584  0.72320159    -0.74800
O720        O  0.92711042  0.69513787  0.79403318    -0.74900
O721        O  0.93394397  0.69188302  0.72039979    -0.74900
O722        O  0.02039023  0.68396636  0.79594743    -0.75000
O723        O  0.03119732  0.74479368  0.79454251    -0.74900
O724        O  0.94587624  0.75252073  0.71791310    -0.74900
O725        O  0.93864289  0.75594821  0.79143392    -0.74800
O726        O  0.03810932  0.74213656  0.72227268    -0.74900
Ni727      Ni  0.97638084  0.68589124  0.75851966     1.25400
Ni728      Ni  0.98859765  0.75101375  0.75653209     1.25400
C729        C  0.04886867  0.70963936  0.71127332     0.87400
C730        C  0.91773634  0.72798218  0.80525191     0.87300
C731        C  0.92743021  0.72309982  0.70537270     0.87300
C732        C  0.04072373  0.71293937  0.80735178     0.87500
O733        O  0.55318877  0.76121386  0.71646629    -0.74800
O734        O  0.44910488  0.75982011  0.78269334    -0.74900
O735        O  0.46056270  0.75377679  0.71102742    -0.74900
O736        O  0.54077648  0.76644800  0.78914509    -0.75000
O737        O  0.53565252  0.82777979  0.78409249    -0.74900
O738        O  0.45202284  0.81481091  0.70621655    -0.74900
O739        O  0.44292559  0.82108589  0.77882386    -0.74800
O740        O  0.54550159  0.82214035  0.71033849    -0.74900
Ni741      Ni  0.50129004  0.75822529  0.74991318     1.25400
Ni742      Ni  0.49392250  0.82376699  0.74461466     1.25400
C743        C  0.56569331  0.79165813  0.70158589     0.87400
C744        C  0.42976822  0.79028346  0.79245758     0.87300
C745        C  0.44299539  0.78185745  0.69581461     0.87300
C746        C  0.54970788  0.79890390  0.80052504     0.87500
O747        O  0.56579724  0.18804553  0.71900326    -0.74800
O748        O  0.47235303  0.18309108  0.79470924    -0.74900
O749        O  0.47201516  0.18259961  0.72181274    -0.74900
O750        O  0.56559423  0.18879511  0.79312544    -0.75000
O751        O  0.56037863  0.25014420  0.79204039    -0.74900
O752        O  0.46489858  0.24395692  0.72290043    -0.74900
O753        O  0.46749326  0.24448562  0.79522767    -0.74800
O754        O  0.55813796  0.24936080  0.71831352    -0.74900
Ni755      Ni  0.51937233  0.18340243  0.75711004     1.25400
Ni756      Ni  0.51276257  0.24915249  0.75707007     1.25400
C757        C  0.57559794  0.21950470  0.70507269     0.87400
C758        C  0.45496664  0.21303394  0.80775085     0.87300
C759        C  0.45259770  0.21232651  0.71109171     0.87300
C760        C  0.57689305  0.22057380  0.80551524     0.87500
C761        C  0.37043322  0.79515502  0.66397722    -0.20700
C762        C  0.41249138  0.77562008  0.66544817    -0.07300
C763        C  0.42481321  0.74995914  0.63807965     0.13600
C764        C  0.39494388  0.74483863  0.60959290    -0.20800
C765        C  0.35283760  0.76451218  0.60747375    -0.07300
C766        C  0.34003563  0.78973903  0.63543882     0.13600
C767        C  0.29521937  0.81147122  0.63540242    -0.24100
H768        H  0.36119928  0.81446674  0.68545816     0.14900
H769        H  0.40498294  0.72517092  0.58865464     0.14900
C770        C  0.47015866  0.72869807  0.63789440    -0.24000
H771        H  0.29178881  0.83023686  0.65911927     0.05100
H772        H  0.26504163  0.79235534  0.63649731     0.08300
H773        H  0.29403923  0.82870482  0.61075321     0.08300
H774        H  0.47033873  0.70911515  0.66081594     0.08300
H775        H  0.49986706  0.74812530  0.63980147     0.08300
H776        H  0.47552147  0.71216261  0.61280688     0.05100
C777        C  0.36417188  0.80830048  0.88054412    -0.20700
C778        C  0.33816525  0.77564448  0.88365626    -0.07300
C779        C  0.33768203  0.75047621  0.85442492     0.13600
C780        C  0.36485496  0.75800242  0.82341096    -0.20800
C781        C  0.39364398  0.78923927  0.82140457    -0.07300
C782        C  0.39259043  0.81521101  0.85004889     0.13600
C783        C  0.42400857  0.84855929  0.85020399    -0.24100
H784        H  0.36442104  0.82744469  0.90311998     0.14900
H785        H  0.36594139  0.73812832  0.80143408     0.14900
C786        C  0.31212510  0.71416396  0.85683460    -0.24000
H787        H  0.41982600  0.86477832  0.87560022     0.05100
H788        H  0.41559687  0.86709873  0.82754341     0.08300
H789        H  0.46099164  0.83970537  0.84765711     0.08300
H790        H  0.27415542  0.71909608  0.86022679     0.08300
H791        H  0.32465922  0.69802565  0.88005604     0.08300
H792        H  0.31779941  0.69711591  0.83211079     0.05100
C793        C  0.07707586  0.68043224  0.65444067    -0.20700
C794        C  0.08527419  0.70539912  0.68248990    -0.07300
C795        C  0.12507203  0.72840953  0.68021831     0.13600
C796        C  0.15264958  0.72856563  0.64831082    -0.20800
C797        C  0.14089364  0.70691944  0.61839827    -0.07300
C798        C  0.10393240  0.68107193  0.62226756     0.13600
C799        C  0.09155864  0.65451129  0.59255160    -0.24100
H800        H  0.04727427  0.66216600  0.65657754     0.14900
H801        H  0.18148617  0.74774434  0.64586529     0.14900
C802        C  0.13855429  0.75307440  0.71109991    -0.24000
H803        H  0.06550885  0.63381836  0.60201865     0.05100
H804        H  0.12313855  0.63928292  0.58293479     0.08300
H805        H  0.07592712  0.66947468  0.56983467     0.08300
H806        H  0.14145369  0.73646578  0.73604940     0.08300
H807        H  0.11236826  0.77527770  0.71554062     0.08300
H808        H  0.17265307  0.76666510  0.70566306     0.05100
C809        C  0.11058610  0.68154883  0.88749279    -0.20700
C810        C  0.14035412  0.71173291  0.89109253    -0.07300
C811        C  0.14019445  0.74046582  0.86571931     0.13600
C812        C  0.10827550  0.73928541  0.83802038    -0.20800
C813        C  0.07630674  0.71009866  0.83525851    -0.07300
C814        C  0.07866548  0.68004763  0.85964212     0.13600
C815        C  0.04673101  0.64711137  0.85783097    -0.24100
H816        H  0.11078590  0.65996656  0.90767780     0.14900
H817        H  0.10762481  0.76186067  0.81893787     0.14900
C818        C  0.17244272  0.77307477  0.86876303    -0.24000
H819        H  0.05286862  0.62721958  0.87992815     0.05100
H820        H  0.05292494  0.63208671  0.83196842     0.08300
H821        H  0.00986631  0.65625831  0.86029178     0.08300
H822        H  0.20911226  0.76340857  0.86745071     0.08300
H823        H  0.16570275  0.78769822  0.89477999     0.08300
H824        H  0.16770323  0.79316199  0.84660447     0.05100
C825        C  0.59211760  0.78174716  0.89427152    -0.20700
C826        C  0.63603599  0.79839327  0.89207160    -0.07300
C827        C  0.64975364  0.81785340  0.86030124     0.13600
C828        C  0.61915578  0.81985025  0.83164416    -0.20800
C829        C  0.57606407  0.80217783  0.83356440    -0.07300
C830        C  0.56171524  0.78366602  0.86554793     0.13600
C831        C  0.51456363  0.76583545  0.87049045    -0.24100
H832        H  0.58144348  0.76705651  0.91855144     0.14900
H833        H  0.62993108  0.83350701  0.80681763     0.14900
C834        C  0.69764281  0.83443312  0.85515542    -0.24000
H835        H  0.51886504  0.73562564  0.87425494     0.05100
H836        H  0.49644280  0.77763895  0.89477483     0.08300
H837        H  0.49170606  0.77040203  0.84745563     0.08300
H838        H  0.70320998  0.84578210  0.82758906     0.08300
H839        H  0.72461787  0.81293903  0.85918755     0.08300
H840        H  0.70231875  0.85755002  0.87444081     0.05100
C841        C  0.64131369  0.76717025  0.67867904    -0.20700
C842        C  0.60330728  0.79059691  0.67329748    -0.07300
C843        C  0.59962188  0.80871073  0.63966664     0.13600
C844        C  0.63217906  0.80067715  0.61149268    -0.20800
C845        C  0.66790464  0.77479676  0.61612439    -0.07300
C846        C  0.67378953  0.75923407  0.65075754     0.13600
C847        C  0.71437424  0.73427015  0.65866079    -0.24100
H848        H  0.64479088  0.75403227  0.70469505     0.14900
H849        H  0.62819192  0.81305929  0.58520171     0.14900
C850        C  0.55995226  0.83470448  0.63258245    -0.24000
H851        H  0.71515803  0.72692055  0.68769856     0.05100
H852        H  0.74754902  0.74844223  0.65150499     0.08300
H853        H  0.71209935  0.70810252  0.64318185     0.08300
H854        H  0.56137777  0.85877215  0.65116763     0.08300
H855        H  0.52622299  0.82017119  0.63667127     0.08300
H856        H  0.56159310  0.84536129  0.60453415     0.05100
C857        C  0.86400475  0.76204388  0.89408102    -0.20700
C858        C  0.81843064  0.74851340  0.89259885    -0.07300
C859        C  0.80562676  0.72687936  0.86259277     0.13600
C860        C  0.83892662  0.71945696  0.83473890    -0.20800
C861        C  0.88414621  0.73411406  0.83583799    -0.07300
C862        C  0.89693122  0.75520385  0.86623188     0.13600
C863        C  0.94559226  0.77013762  0.86985929    -0.24100
H864        H  0.87366071  0.77874897  0.91703655     0.14900
H865        H  0.82916336  0.70336925  0.81142727     0.14900
C866        C  0.75639486  0.71341799  0.85897463    -0.24000
H867        H  0.95008762  0.78408784  0.89627647     0.05100
H868        H  0.95328185  0.79076996  0.84850043     0.08300
H869        H  0.97121845  0.74717473  0.86770028     0.08300
H870        H  0.73205024  0.73730687  0.85938995     0.08300
H871        H  0.74706939  0.69462719  0.88159944     0.08300
H872        H  0.75192144  0.69805375  0.83331038     0.05100
C873        C  0.86594092  0.69916598  0.61853185    -0.20700
C874        C  0.84575013  0.73323592  0.61014620    -0.07300
C875        C  0.85405435  0.76429072  0.63254920     0.13600
C876        C  0.88049982  0.75978968  0.66339939    -0.20800
C877        C  0.89927526  0.72537050  0.67254705    -0.07300
C878        C  0.89286998  0.69477334  0.64912650     0.13600
C879        C  0.91480258  0.65750511  0.65534689    -0.24100
H880        H  0.86019739  0.67557718  0.60110640     0.14900
H881        H  0.88601687  0.78340631  0.68082452     0.21300
C882        C  0.83414646  0.80207607  0.62518163    -0.24000
H883        H  0.90817057  0.63786027  0.63297709     0.05100
H884        H  0.90003342  0.64504613  0.68043396     0.08300
H885        H  0.95312353  0.66048435  0.65719886     0.08300
H886        H  0.79560461  0.80065520  0.62428678     0.08300
H887        H  0.84864227  0.81273522  0.59918911     0.08300
H888        H  0.84297008  0.82243160  0.64641549     0.05100
C889        C  0.65070806  0.20522121  0.67279038    -0.20700
C890        C  0.60650235  0.22170944  0.67261848    -0.07300
C891        C  0.59267549  0.24102204  0.64164560     0.13600
C892        C  0.62508553  0.24669871  0.61326273    -0.20800
C893        C  0.67085591  0.23312111  0.61468068    -0.07300
C894        C  0.68319486  0.21066455  0.64414272     0.13600
C895        C  0.73112063  0.19404743  0.64656814    -0.24100
H896        H  0.66059353  0.18949920  0.69618367     0.14900
H897        H  0.61508545  0.26301194  0.59026971     0.14900
C898        C  0.54359767  0.25525700  0.63814219    -0.24000
H899        H  0.73489184  0.17799353  0.67177513     0.05100
H900        H  0.75778944  0.21621400  0.64621831     0.08300
H901        H  0.73775286  0.17493921  0.62347757     0.08300
H902        H  0.53571776  0.27668649  0.65889618     0.08300
H903        H  0.51858759  0.23207589  0.64138979     0.08300
H904        H  0.53827294  0.26787828  0.61131495     0.05100
C905        C  0.65920714  0.25526392  0.87708408    -0.20700
C906        C  0.65676709  0.22640484  0.90213557    -0.07300
C907        C  0.62741628  0.19599168  0.89560850     0.13600
C908        C  0.60276967  0.19460935  0.86344772    -0.20800
C909        C  0.60645098  0.22294231  0.83765525    -0.07300
C910        C  0.63511407  0.25379206  0.84473535     0.13600
C911        C  0.64194712  0.28475821  0.81804461    -0.24100
H912        H  0.68087964  0.27891100  0.88255021     0.14900
H913        H  0.57971691  0.17151828  0.85877327     0.14900
C914        C  0.62026275  0.16586831  0.92314732    -0.24000
H915        H  0.66876674  0.30469130  0.82681429     0.05100
H916        H  0.60904131  0.30041897  0.81528218     0.08300
H917        H  0.65359611  0.27334844  0.79143089     0.08300
H918        H  0.60832311  0.17817726  0.94930967     0.08300
H919        H  0.65314925  0.15045659  0.92685171     0.08300
H920        H  0.59356012  0.14567506  0.91473368     0.05100
C921        C  0.91671374  0.24986093  0.66736614    -0.20700
C922        C  0.91437419  0.28114195  0.69005360    -0.07300
C923        C  0.88344597  0.31010979  0.68133280     0.13600
C924        C  0.85574356  0.30672515  0.65088601    -0.20800
C925        C  0.85779575  0.27545166  0.62815947    -0.07300
C926        C  0.88928165  0.24661263  0.63659673     0.13600
C927        C  0.89412882  0.21198415  0.61397442    -0.24100
H928        H  0.94071270  0.22778301  0.67350750     0.14900
H929        H  0.83219417  0.32910649  0.64479334     0.14900
C930        C  0.87834737  0.34459959  0.70411963    -0.24000
H931        H  0.91958443  0.19229265  0.62517807     0.05100
H932        H  0.90667227  0.21901130  0.58625682     0.08300
H933        H  0.86009802  0.19762636  0.61302205     0.08300
H934        H  0.91121488  0.36065378  0.70296030     0.08300
H935        H  0.86925721  0.33710462  0.73245619     0.08300
H936        H  0.85043284  0.36303909  0.69446421     0.05100
C937        C  0.88871753  0.25499519  0.91222777    -0.20700
C938        C  0.84366626  0.26963372  0.91040810    -0.07300
C939        C  0.83246108  0.29260909  0.88113638     0.13600
C940        C  0.86567767  0.29822298  0.85307084    -0.20800
C941        C  0.90943037  0.28104443  0.85366847    -0.07300
C942        C  0.92190634  0.26069881  0.88442253     0.13600
C943        C  0.97034704  0.24527590  0.88826859    -0.24100
H944        H  0.89746771  0.23796099  0.93505873     0.14900
H945        H  0.85666127  0.31444444  0.82976939     0.14900
C946        C  0.78461153  0.30896895  0.87818245    -0.24000
H947        H  0.97468601  0.23215129  0.91498788     0.05100
H948        H  0.99626981  0.26788897  0.88559932     0.08300
H949        H  0.97778434  0.22394033  0.86733344     0.08300
H950        H  0.77675447  0.32729132  0.90166671     0.08300
H951        H  0.75884900  0.28630843  0.87750720     0.08300
H952        H  0.78133028  0.32550404  0.85322045     0.05100
C953        C  0.39124626  0.18839032  0.89554498    -0.20700
C954        C  0.36334666  0.21989862  0.90067901    -0.07300
C955        C  0.36219923  0.24706668  0.87347541     0.13600
C956        C  0.39053944  0.24262610  0.84248673    -0.20800
C957        C  0.42059962  0.21217580  0.83816082    -0.07300
C958        C  0.41993960  0.18405017  0.86462783     0.13600
C959        C  0.45081393  0.15037159  0.86170608    -0.24100
H960        H  0.39179756  0.16765426  0.91654310     0.14900
H961        H  0.39050592  0.26393896  0.82204106     0.14900
C962        C  0.33391978  0.28206938  0.87788104    -0.24000
H963        H  0.44645892  0.13211361  0.88555804     0.05100
H964        H  0.48791548  0.15884990  0.85982991     0.08300
H965        H  0.44187348  0.13390174  0.83755749     0.08300
H966        H  0.34420558  0.29700756  0.90261962     0.08300
H967        H  0.29628300  0.27543001  0.87973973     0.08300
H968        H  0.33933284  0.30102063  0.85467171     0.05100
C969        C  0.34867999  0.23334107  0.65373321    -0.20700
C970        C  0.36014384  0.21211101  0.62308419    -0.07300
C971        C  0.39827176  0.18751715  0.62346767     0.13600
C972        C  0.42633566  0.18673557  0.65364909    -0.20800
C973        C  0.41741006  0.21030378  0.68311985    -0.07300
C974        C  0.37704918  0.23284070  0.68391321     0.13600
C975        C  0.36351755  0.25608217  0.71641755    -0.24100
H976        H  0.31890360  0.25177037  0.65329211     0.14900
H977        H  0.45677432  0.16897472  0.65344642     0.14900
C978        C  0.40947380  0.16218711  0.59200834    -0.24000
H979        H  0.32932567  0.26985849  0.71311823     0.05100
H980        H  0.38969767  0.27802840  0.72062978     0.08300
H981        H  0.36080126  0.23834949  0.74074928     0.08300
H982        H  0.41836956  0.17851811  0.56754291     0.08300
H983        H  0.37891474  0.14444156  0.58670551     0.08300
H984        H  0.43953838  0.14388723  0.59741376     0.05100
C985        C  0.13248687  0.31430641  0.90427904    -0.20700
C986        C  0.16258277  0.28393213  0.90563344    -0.07300
C987        C  0.16311074  0.25738473  0.87780256     0.13600
C988        C  0.13239449  0.26127743  0.84947493    -0.20800
C989        C  0.10010795  0.29048642  0.84893982    -0.07300
C990        C  0.10090788  0.31794184  0.87632058     0.13600
C991        C  0.06678819  0.34964626  0.87782764    -0.24100
H992        H  0.13170062  0.33397903  0.92643689     0.14900
H993        H  0.13229723  0.24045134  0.82837308     0.14900
C994        C  0.19409046  0.22379278  0.87915031    -0.24000
H995        H  0.07119158  0.36716082  0.90217050     0.05100
H996        H  0.03060103  0.33888716  0.87867840     0.08300
H997        H  0.07219761  0.36756360  0.85388100     0.08300
H998        H  0.18536200  0.20746160  0.90367224     0.08300
H999        H  0.23105446  0.23244260  0.87984886     0.08300
H1000       H  0.18990169  0.20557155  0.85528565     0.05100
C1001       C  0.09432722  0.31128748  0.66535471    -0.20700
C1002       C  0.10434350  0.28972894  0.69532029    -0.07300
C1003       C  0.14440582  0.26698739  0.69456715     0.13600
C1004       C  0.17050509  0.26320548  0.66215750    -0.20800
C1005       C  0.15704189  0.28150652  0.63078908    -0.07300
C1006       C  0.12003833  0.30749456  0.63300416     0.13600
C1007       C  0.10698551  0.33128431  0.60150489    -0.24100
H1008       H  0.06425192  0.32945277  0.66649649     0.14900
H1009       H  0.19984808  0.24432948  0.66082670     0.14900
C1010       C  0.15980871  0.24699802  0.72778343    -0.24000
H1011       H  0.08059096  0.35246117  0.60953141     0.05100
H1012       H  0.09161995  0.31426922  0.57996351     0.08300
H1013       H  0.13824942  0.34596992  0.59073323     0.08300
H1014       H  0.13360968  0.22612166  0.73631764     0.08300
H1015       H  0.16454136  0.26716434  0.75004726     0.08300
H1016       H  0.19343031  0.23237827  0.72283700     0.05100
C1017       C  0.89369570  0.08375541  0.56287972    -0.20700
C1018       C  0.93168886  0.08189530  0.53811039    -0.07300
C1019       C  0.93772952  0.11044827  0.51243819     0.13600
C1020       C  0.90377581  0.13807676  0.51025490    -0.20800
C1021       C  0.86409435  0.13852902  0.53322092    -0.07300
C1022       C  0.85977044  0.11181608  0.56077246     0.13600
C1023       C  0.81858090  0.11175723  0.58678725    -0.24100
H1024       H  0.88961843  0.06241459  0.58312323     0.14900
H1025       H  0.90773709  0.15922602  0.48977542     0.14900
C1026       C  0.98023093  0.11262634  0.48763430    -0.24000
H1027       H  0.82010518  0.08832080  0.60594982     0.05100
H1028       H  0.77738570  0.10765310  0.05773704     0.08300
H1029       H  0.81790927  0.13774145  0.60278097     0.08300
H1030       H  0.99333248  0.10159417  0.98218702     0.08300
H1031       H  0.01225790  0.11196008  0.50371692     0.08300
H1032       H  0.98082179  0.13855488  0.47171625     0.05100
C1033       C  0.13269410  0.09573875  0.51000898    -0.20700
C1034       C  0.11704191  0.08123442  0.54345857    -0.07300
C1035       C  0.12724705  0.10140521  0.57536494     0.13600
C1036       C  0.15096278  0.13541136  0.57261421    -0.20800
C1037       C  0.16325053  0.15065043  0.53901705    -0.07300
C1038       C  0.15479043  0.13024003  0.50737168     0.13600
C1039       C  0.16878206  0.14491210  0.47062333    -0.24100
H1040       H  0.12580671  0.08083077  0.48533848     0.14900
H1041       H  0.15749083  0.15132366  0.59679120     0.14900
C1042       C  0.11188032  0.08855049  0.61242158    -0.24000
H1043       H  0.16170680  0.12467239  0.44886741     0.05100
H1044       H  0.20662363  0.15115269  0.46962361     0.08300
H1045       H  0.14887205  0.17039599  0.46488278     0.08300
H1046       H  0.15670529  0.04150846  0.08993411     0.08300
H1047       H  0.07328317  0.08756825  0.61453280     0.08300
H1048       H  0.12370360  0.10753047  0.63391919     0.05100
C1049       C  0.16611107  0.86628272  0.51325117    -0.20700
C1050       C  0.15307577  0.83924658  0.53845637    -0.07300
C1051       C  0.12151852  0.84838388  0.56692370     0.13600
C1052       C  0.10157487  0.88385294  0.56839908    -0.20800
C1053       C  0.11160150  0.91030769  0.54158750    -0.07300
C1054       C  0.14563982  0.90168630  0.51427191     0.13600
C1055       C  0.16071374  0.92942024  0.48610995    -0.24100
H1056       H  0.19077769  0.85907638  0.49167311     0.14900
H1057       H  0.07600635  0.89018535  0.58958702     0.14900
C1058       C  0.10824299  0.82036606  0.59535961    -0.24000
H1059       H  0.19015631  0.91886378  0.46890930     0.05100
H1060       H  0.17232839  0.95521259  0.49941839     0.08300
H1061       H  0.07598478  0.91705305  0.95253247     0.08300
H1062       H  0.13990920  0.81090279  0.60915578     0.08300
H1063       H  0.09124273  0.79621843  0.58274506     0.08300
H1064       H  0.08366014  0.83208888  0.61606419     0.05100
C1065       C  0.88812491  0.86807640  0.50392304    -0.20700
C1066       C  0.84622684  0.87197021  0.52400354    -0.07300
C1067       C  0.84298540  0.89953315  0.55112102     0.13600
C1068       C  0.88090963  0.92372028  0.55597080    -0.20800
C1069       C  0.92223330  0.92046159  0.53481188    -0.07300
C1070       C  0.92646018  0.89098339  0.50970168     0.13600
C1071       C  0.97129198  0.88175966  0.48938733    -0.24100
H1072       H  0.89136332  0.84629866  0.48379905     0.14900
H1073       H  0.87772094  0.94598241  0.57553705     0.14900
C1074       C  0.79911066  0.90451960  0.57377180    -0.24000
H1075       H  0.98142122  0.85617254  0.98864560     0.05100
H1076       H  0.00149940  0.89786907  0.49854636     0.08300
H1077       H  0.96178878  0.89043033  0.95723969     0.08300
H1078       H  0.79213369  0.87919110  0.58977809     0.08300
H1079       H  0.76930914  0.90994285  0.55611143     0.08300
H1080       H  0.80194512  0.92806508  0.59289414     0.05100
C1081       C  0.63060564  0.36665478  0.46182469    -0.20700
C1082       C  0.66281678  0.37225421  0.48920469    -0.07300
C1083       C  0.66239357  0.40661215  0.50788547     0.13600
C1084       C  0.62758219  0.43264647  0.50107864    -0.20800
C1085       C  0.59356549  0.42608302  0.47556041    -0.07300
C1086       C  0.59607271  0.39320653  0.45464996     0.13600
C1087       C  0.56121793  0.38509598  0.42605659    -0.24100
H1088       H  0.63106647  0.34070667  0.44710381     0.14900
H1089       H  0.62643779  0.45827799  0.51633353     0.14900
C1090       C  0.69877643  0.41660405  0.53482319    -0.24000
H1091       H  0.56731527  0.35759811  0.41333708     0.05100
H1092       H  0.56402432  0.40614854  0.40444019     0.08300
H1093       H  0.52584137  0.38462940  0.94662703     0.08300
H1094       H  0.73409148  0.41245599  0.52251543     0.08300
H1095       H  0.71160250  0.40705163  0.05225396     0.08300
H1096       H  0.69593227  0.44597887  0.54341933     0.05100
C1097       C  0.35649392  0.35636632  0.45645890    -0.20700
C1098       C  0.35826106  0.34189270  0.99523137    -0.07300
C1099       C  0.38650987  0.35604191  0.02272545     0.13600
C1100       C  0.40882210  0.39017556  0.01776262    -0.20800
C1101       C  0.40415364  0.41079015  0.98598693    -0.07300
C1102       C  0.37817985  0.39095090  0.45114174     0.13600
C1103       C  0.37048979  0.41118215  0.41641385    -0.24100
H1104       H  0.33542329  0.34487405  0.43540184     0.14900
H1105       H  0.43146367  0.40017769  0.03853830     0.14900
C1106       C  0.39280403  0.33572554  0.05772496    -0.24000
H1107       H  0.34575363  0.39630816  0.39904328     0.05100
H1108       H  0.40387698  0.41375907  0.40086417     0.08300
H1109       H  0.35187432  0.44765900  0.93333866     0.08300
H1110       H  0.41595489  0.30536504  0.54667591     0.08300
H1111       H  0.35825542  0.32936042  0.07036087     0.08300
H1112       H  0.41252506  0.35243029  0.07729219     0.05100
C1113       C  0.36471653  0.58799391  0.50263526    -0.20700
C1114       C  0.38914255  0.57866591  0.97441724    -0.07300
C1115       C  0.36613923  0.59184730  0.94346178     0.13600
C1116       C  0.34131602  0.62561688  0.94544850    -0.20800
C1117       C  0.33934544  0.64678990  0.97728152    -0.07300
C1118       C  0.33942918  0.62120310  0.50492271     0.13600
C1119       C  0.32309230  0.63556524  0.54138606    -0.24100
H1120       H  0.37280257  0.57388294  0.52739374     0.14900
H1121       H  0.32529034  0.63642443  0.92156288     0.14900
C1122       C  0.36773163  0.57105770  0.90814364    -0.24000
H1123       H  0.33164849  0.61614798  0.56334957     0.05100
H1124       H  0.28472287  0.63940393  0.54171841     0.08300
H1125       H  0.33996263  0.66238760  0.54723375     0.08300
H1126       H  0.35492055  0.54243207  0.91235713     0.08300
H1127       H  0.40382270  0.57050642  0.89669430     0.08300
H1128       H  0.34547323  0.58427804  0.88784585     0.05100
C1129       C  0.56129918  0.61435073  0.49575966    -0.20700
C1130       C  0.57280386  0.58622227  0.47087609    -0.07300
C1131       C  0.61494086  0.58910913  0.45031863     0.13600
C1132       C  0.64509615  0.61930574  0.45623528    -0.20800
C1133       C  0.63447743  0.64640061  0.48259488    -0.07300
C1134       C  0.59125545  0.64419799  0.50190036     0.13600
C1135       C  0.57590236  0.67347634  0.52883768    -0.24100
H1136       H  0.52521964  0.61858583  0.99743932     0.14900
H1137       H  0.67803782  0.62087498  0.44135169     0.14900
C1138       C  0.62937506  0.55950302  0.42361858    -0.24000
H1139       H  0.53385279  0.67936501  0.01695852     0.05100
H1140       H  0.57425175  0.70699662  0.99094294     0.08300
H1141       H  0.59854410  0.67316562  0.55256139     0.08300
H1142       H  0.61147991  0.54851325  0.90321447     0.08300
H1143       H  0.63131782  0.53242321  0.43746837     0.08300
H1144       H  0.66403889  0.56530289  0.41089811     0.05100
loop_ 
_geom_bond_atom_site_label_1 
_geom_bond_atom_site_label_2 
_geom_bond_distance 
_geom_bond_site_symmetry_2 
_ccdc_geom_bond_type 
O1           Ni9   1.939       .  S
O1          C583   1.285       .  A
O2           Ni9   1.945       .  S
O2           C12   1.286       .  A
O3           Ni9   1.921       .  S
O3          C585   1.280       .  A
O4           Ni9   1.926       .  S
O4           C14   1.282       .  A
O5          Ni10   1.917       .  S
O5          C586   1.283   1_554  A
O6          Ni10   1.919       .  S
O6           C13   1.282   1_554  A
O7          Ni10   1.908   1_556  S
O7          C584   1.280       .  A
O8          Ni10   1.916       .  S
O8           C11   1.281   1_554  A
Ni9        Ni582   2.381       .  S
Ni10       Ni581   2.383   1_554  S
C11         O573   1.282       .  A
C11        C1101   1.493       .  S
C12         O579   1.280       .  A
C12        C1130   1.494       .  S
C13         O575   1.282       .  A
C13         C513   1.485       .  S
C14         O577   1.284       .  A
C14         C542   1.504       .  S
O15         Ni23   1.918   1_655  S
O15         C597   1.282       .  A
O16         Ni23   1.917   1_545  S
O16         C598   1.282       .  A
O17         Ni23   1.920       .  S
O17         C599   1.281       .  A
O18         Ni23   1.914   1_645  S
O18         C600   1.281       .  A
O19         Ni24   1.926   1_645  S
O19          C28   1.282       .  A
O20         Ni24   1.926       .  S
O20          C27   1.285       .  A
O21         Ni24   1.927   1_545  S
O21          C26   1.282       .  A
O22         Ni24   1.925   1_655  S
O22          C25   1.281       .  A
Ni23       Ni596   2.382       .  S
Ni24       Ni595   2.384   1_565  S
C25         O587   1.281       .  A
C25         C497   1.479       .  S
C26         O588   1.281       .  A
C26         C462   1.494       .  S
C27         O589   1.278       .  A
C27         C481   1.497       .  S
C28         O590   1.279       .  A
C28         C446   1.474       .  S
O29        Ni607   1.920       .  S
O29          C50   1.269       .  A
O30         Ni53   1.911       .  S
O30          C39   1.268       .  A
O31         Ni35   1.901       .  S
O31         Ni53   1.908       .  S
O31        Ni619   1.904   1_554  S
O31          H54   0.964       .  S
C32          O49   1.272       .  A
C32          O41   1.273       .  A
C32         C382   1.480       .  S
O33         Ni52   1.917       .  S
O33          C39   1.268       .  A
O34         Ni52   1.905       .  S
O34         C608   1.268   1_554  A
Ni35         O38   1.904       .  S
Ni35         O40   1.899       .  S
Ni35        O601   1.915   1_554  S
C36          O46   1.274       .  A
C36         O606   1.269       .  A
C36         C526   1.489       .  S
O37         Ni53   1.911       .  S
O37          C43   1.275       .  A
O38          C43   1.271       .  A
C39         C398   1.468       .  S
O40          C42   1.266       .  A
O41        Ni624   1.917       .  S
C42          O48   1.273       .  A
C42         C465   1.483       .  S
C43         C433   1.470       .  S
H44          O45   0.968       .  S
O45         Ni53   1.910       .  S
O45         Ni52   1.901       .  S
O45        Ni619   1.904   1_554  S
O46         Ni47   1.935       .  S
Ni47         O51   1.903       .  S
Ni47         O49   1.911       .  S
Ni47        O603   1.910       .  S
Ni47        O617   1.906       .  S
O48         Ni53   1.936       .  S
C50          O51   1.266       .  A
C50         C414   1.464       .  S
Ni52        O613   1.914   1_554  S
O55         Ni61   1.931       .  S
O55          C76   1.273       .  A
O56         Ni79   1.909       .  S
O56          C65   1.265       .  A
O57         Ni61   1.909       .  S
O57         Ni79   1.911       .  S
O57        Ni645   1.920   1_554  S
O57          H80   0.966       .  S
C58          O75   1.276       .  A
C58          O67   1.273       .  A
C58         C334   1.485       .  S
O59         Ni78   1.923       .  S
O59         C637   1.269       .  A
O60         Ni78   1.897       .  S
O60          C62   1.267       .  A
Ni61         O64   1.932       .  S
Ni61         O66   1.904       .  S
C62          O72   1.273       .  A
C62         C366   1.472       .  S
O63         Ni79   1.895       .  S
O63          C69   1.266       .  A
O64          C69   1.276       .  A
C65         O631   1.269   1_554  A
C65         C449   1.475       .  S
O66          C68   1.271       .  A
O67         Ni78   1.919       .  S
C68          O74   1.277       .  A
C68         C321   1.493       .  S
C69         C353   1.492       .  S
H70         O643   0.966       .  S
O71         Ni73   1.916       .  S
O71         Ni78   1.914       .  S
O71        Ni651   1.913       .  S
O71         H642   0.966       .  S
O72         Ni73   1.934       .  S
Ni73         O77   1.920       .  S
Ni73         O75   1.920       .  S
Ni73        O629   1.926       .  S
O74         Ni79   1.950       .  S
C76         O649   1.269   1_554  A
C76         C510   1.483   1_554  S
O77         C648   1.271       .  A
Ni79        O643   1.904       .  S
O81         Ni87   1.930       .  S
O81         C674   1.271       .  A
O82        Ni105   1.930       .  S
O82         C663   1.274       .  A
O83         Ni87   1.905       .  S
O83        Ni105   1.919       .  S
O83        Ni671   1.910       .  S
O83         H678   0.966       .  S
C84         O101   1.270       .  A
C84          O93   1.277       .  A
C84         C302   1.489       .  S
O85        Ni104   1.929       .  S
O85          C91   1.273   1_554  A
O86        Ni104   1.900       .  S
O86          C88   1.268       .  A
Ni87         O90   1.917       .  S
Ni87         O92   1.900       .  S
C88          O98   1.276       .  A
C88         C273   1.478       .  S
O89        Ni105   1.921       .  S
O89          C95   1.278       .  A
O90          C95   1.274       .  A
C91         O654   1.269       .  A
C91         C561   1.475       .  S
O92          C94   1.268       .  A
O93        Ni104   1.931       .  S
C94         O100   1.277       .  A
C94         C286   1.484       .  S
C95         C254   1.484       .  S
H96          O97   0.966   1_556  S
O97         Ni99   1.907       .  S
O97        Ni104   1.906       .  S
O97        Ni677   1.920   1_554  S
O98         Ni99   1.945       .  S
Ni99        O103   1.914       .  S
Ni99        O101   1.903       .  S
Ni99        O655   1.904   1_554  S
O100       Ni105   1.946       .  S
C102        O103   1.267       .  A
C102        O653   1.269   1_554  A
C102        C494   1.480       .  S
Ni105       O669   1.911       .  S
H106        O655   0.966   1_554  S
O107       Ni113   1.918   1_554  S
O107        C128   1.268       .  A
O108       Ni131   1.901       .  S
O108        C117   1.266       .  A
O109       Ni113   1.901       .  S
O109       Ni125   1.912   1_556  S
O109       Ni703   1.905       .  S
O109        H132   0.966       .  S
C110        O127   1.275       .  A
C110        O119   1.274       .  A
C110        C225   1.475       .  S
O111       Ni702   1.919       .  S
O111        C117   1.269       .  A
O112       Ni130   1.905       .  S
O112        C114   1.266       .  A
Ni113       O118   1.906       .  S
Ni113       O688   1.910       .  S
C114        O124   1.271       .  A
C114        C478   1.475       .  S
O115       Ni131   1.913       .  S
O115        C121   1.273       .  A
O116       Ni685   1.920       .  S
O116        C121   1.276       .  A
C117        C238   1.470       .  S
O118        C692   1.269       .  A
O119       Ni130   1.916       .  S
C120        O126   1.274       .  A
C120        O690   1.267       .  A
C120        C545   1.479       .  S
C121        C206   1.479       .  S
H122        O123   0.966       .  S
O123       Ni125   1.905       .  S
O123       Ni130   1.905       .  S
O123       Ni703   1.907   1_554  S
O124       Ni125   1.933       .  S
Ni125       O129   1.905       .  S
Ni125       O127   1.913       .  S
O126       Ni131   1.942       .  S
C128        O129   1.266       .  A
C128        C193   1.464       .  S
Ni130       O683   1.916   1_554  S
Ni131       O681   1.900       .  S
Ni131       O695   1.907       .  S
O133       Ni141   1.898       .  S
O133        C143   1.276       .  A
O134       Ni141   1.905   1_655  S
O134        C144   1.279       .  A
O135       Ni141   1.917   1_655  S
O135        C145   1.281       .  A
O136       Ni141   1.914       .  S
O136        C146   1.282       .  A
O137       Ni142   1.912   1_455  S
O137        C146   1.279       .  A
O138       Ni142   1.909       .  S
O138        C145   1.279       .  A
O139       Ni142   1.923       .  S
O139        C144   1.281       .  A
O140       Ni142   1.917   1_455  S
O140        C143   1.282       .  A
Ni141      Ni142   2.389   1_455  S
C143        C430   1.472       .  S
C144        C369   1.469       .  S
C145        C350   1.473       .  S
C146        C417   1.482       .  S
O147       Ni155   1.921   1_455  S
O147        C157   1.282       .  A
O148       Ni155   1.930       .  S
O148        C158   1.282       .  A
O149       Ni155   1.921       .  S
O149        C159   1.281       .  A
O150       Ni155   1.919   1_455  S
O150        C160   1.281       .  A
O151       Ni156   1.901   1_455  S
O151        C160   1.279       .  A
O152       Ni156   1.909       .  S
O152        C159   1.281       .  A
O153       Ni156   1.914       .  S
O153        C158   1.280       .  A
O154       Ni156   1.906   1_455  S
O154        C157   1.278       .  A
Ni155      Ni156   2.385       .  S
C157        C222   1.477       .  S
C158        C289   1.482       .  S
C159        C305   1.495       .  S
C160        C241   1.481       .  S
O161       Ni169   1.920       .  S
O161        C171   1.282       .  A
O162       Ni169   1.908       .  S
O162        C172   1.280       .  A
O163       Ni169   1.908       .  S
O163        C173   1.279       .  A
O164       Ni169   1.911       .  S
O164        C174   1.279       .  A
O165       Ni170   1.923       .  S
O165        C174   1.282       .  A
O166       Ni170   1.917       .  S
O166        C173   1.281       .  A
O167       Ni170   1.918       .  S
O167        C172   1.281       .  A
O168       Ni170   1.925       .  S
O168        C171   1.282       .  A
Ni169      Ni170   2.390       .  S
C171        C270   1.481       .  S
C172        C209   1.476       .  S
C173        C190   1.472       .  S
C174        C257   1.473       .  S
O175       Ni183   1.938       .  S
O175        C185   1.285       .  A
O176       Ni183   1.928       .  S
O176        C186   1.283       .  A
O177       Ni183   1.920       .  S
O177        C187   1.281       .  A
O178       Ni183   1.921       .  S
O178        C188   1.283       .  A
O179       Ni184   1.913       .  S
O179        C188   1.280       .  A
O180       Ni184   1.908       .  S
O180        C187   1.279       .  A
O181       Ni184   1.900       .  S
O181        C186   1.279       .  A
O182       Ni184   1.912       .  S
O182        C185   1.280       .  A
Ni183      Ni184   2.385       .  S
C185        C318   1.489       .  S
C186        C385   1.485       .  S
C187        C401   1.471       .  S
C188        C337   1.493       .  S
C189        C190   1.401       .  A
C189        C194   1.399       .  A
C189        H196   1.083       .  S
C190        C191   1.417       .  A
C191        C192   1.403       .  A
C191        C198   1.508       .  S
C192        C193   1.399       .  A
C192        H197   1.084       .  S
C193        C194   1.410       .  A
C194        C195   1.507       .  S
C195        H199   1.111       .  S
C195        H200   1.110       .  S
C195        H201   1.110       .  S
C198        H202   1.111       .  S
C198        H203   1.109       .  S
C198        H204   1.111       .  S
C205        C206   1.404       .  A
C205        C210   1.402       .  A
C205        H212   1.084       .  S
C206        C207   1.415       .  A
C207        C208   1.403       .  A
C207        C214   1.508       .  S
C208        C209   1.404       .  A
C208        H213   1.084       .  S
C209        C210   1.414       .  A
C210        C211   1.509       .  S
C211        H215   1.111       .  S
C211        H216   1.110       .  S
C211        H217   1.110       .  S
C214        H218   1.110       .  S
C214        H219   1.111       .  S
C214        H220   1.111       .  S
C221        C222   1.402       .  A
C221        C226   1.402       .  A
C221        H228   1.084       .  S
C222        C223   1.416       .  A
C223        C224   1.402       .  A
C223        C230   1.508       .  S
C224        C225   1.401       .  A
C224        H229   1.084       .  S
C225        C226   1.416       .  A
C226        C227   1.509       .  S
C227        H231   1.111       .  S
C227        H232   1.110       .  S
C227        H233   1.109       .  S
C230        H234   1.110       .  S
C230        H235   1.109       .  S
C230        H236   1.111       .  S
C237        C238   1.401       .  A
C237        C242   1.405       .  A
C237        H244   1.084       .  S
C238        C239   1.413       .  A
C239        C240   1.395       .  A
C239        C246   1.511       .  S
C240        C241   1.404       .  A
C240        H245   1.084       .  S
C241        C242   1.418       .  A
C242        C243   1.507       .  S
C243        H247   1.111       .  S
C243        H248   1.111       .  S
C243        H249   1.109       .  S
C246        H250   1.111       .  S
C246        H251   1.109       .  S
C246        H252   1.111       .  S
C253        C254   1.403       .  A
C253        C258   1.403       .  A
C253        H260   1.085       .  S
C254        C255   1.422       .  A
C255        C256   1.403       .  A
C255        C262   1.510       .  S
C256        C257   1.397       .  A
C256        H261   1.084       .  S
C257        C258   1.417       .  A
C258        C259   1.509       .  S
C259        H263   1.110       .  S
C259        H264   1.111       .  S
C259        H265   1.105       .  S
C262        H266   1.111       .  S
C262        H267   1.111       .  S
C262        H268   1.109       .  S
C269        C270   1.400       .  A
C269        C274   1.403       .  A
C269        H276   1.084       .  S
C270        C271   1.416       .  A
C271        C272   1.410       .  A
C271        C278   1.505       .  S
C272        C273   1.402       .  A
C272        H277   1.084       .  S
C273        C274   1.415       .  A
C274        C275   1.508       .  S
C275        H279   1.111       .  S
C275        H280   1.109       .  S
C275        H281   1.109       .  S
C278        H282   1.110       .  S
C278        H283   1.110       .  S
C278        H284   1.111       .  S
C285        C286   1.404       .  A
C285        C290   1.403       .  A
C285        H292   1.085       .  S
C286        C287   1.416       .  A
C287        C288   1.411       .  A
C287        C294   1.506       .  S
C288        C289   1.404       .  A
C288        H293   1.084       .  S
C289        C290   1.414       .  A
C290        C291   1.509       .  S
C291        H295   1.111       .  S
C291        H296   1.109       .  S
C291        H297   1.111       .  S
C294        H298   1.111       .  S
C294        H299   1.110       .  S
C294        H300   1.111       .  S
C301        C302   1.405       .  A
C301        C306   1.407       .  A
C301        H308   1.084       .  S
C302        C303   1.419       .  A
C303        C304   1.401       .  A
C303        C310   1.511       .  S
C304        C305   1.407       .  A
C304        H309   1.083       .  S
C305        C306   1.421       .  A
C306        C307   1.508       .  S
C307        H311   1.111       .  S
C307        H312   1.110       .  S
C307        H313   1.110       .  S
C310        H314   1.110       .  S
C310        H315   1.110       .  S
C310        H316   1.111       .  S
C317        C318   1.406       .  A
C317        C322   1.414       .  A
C317        H324   1.084       .  S
C318        C319   1.417       .  A
C319        C320   1.403       .  A
C319        C326   1.510       .  S
C320        C321   1.403       .  A
C320        H325   1.084       .  S
C321        C322   1.420       .  A
C322        C323   1.507       .  S
C323        H327   1.111       .  S
C323        H328   1.111       .  S
C323        H329   1.110       .  S
C326        H330   1.109       .  S
C326        H331   1.111       .  S
C326        H332   1.111       .  S
C333        C334   1.403       .  A
C333        C338   1.405       .  A
C333        H340   1.084       .  S
C334        C335   1.416       .  A
C335        C336   1.405       .  A
C335        C342   1.509       .  S
C336        C337   1.408       .  A
C336        H341   1.084       .  S
C337        C338   1.420       .  A
C338        C339   1.508       .  S
C339        H343   1.111       .  S
C339        H344   1.110       .  S
C339        H345   1.110       .  S
C342        H346   1.110       .  S
C342        H347   1.109       .  S
C342        H348   1.111       .  S
C349        C350   1.400       .  A
C349        C354   1.403       .  A
C349        H356   1.085       .  S
C350        C351   1.410       .  A
C351        C352   1.402       .  A
C351        C358   1.508       .  S
C352        C353   1.410       .  A
C352        H357   1.083       .  S
C353        C354   1.424       .  A
C354        C355   1.510       .  S
C355        H359   1.111       .  S
C355        H360   1.110       .  S
C355        H361   1.110       .  S
C358        H362   1.109       .  S
C358        H363   1.111       .  S
C358        H364   1.111       .  S
C365        C366   1.402       .  A
C365        C370   1.400       .  A
C365        H372   1.085       .  S
C366        C367   1.413       .  A
C367        C368   1.407       .  A
C367        C374   1.507       .  S
C368        C369   1.403       .  A
C368        H373   1.084       .  S
C369        C370   1.412       .  A
C370        C371   1.509       .  S
C371        H375   1.111       .  S
C371        H376   1.110       .  S
C371        H377   1.109       .  S
C374        H378   1.110       .  S
C374        H379   1.111       .  S
C374        H380   1.111       .  S
C381        C382   1.405       .  A
C381        C386   1.406       .  A
C381        H388   1.084       .  S
C382        C383   1.415       .  A
C383        C384   1.399       .  A
C383        C390   1.510       .  S
C384        C385   1.405       .  A
C384        H389   1.084       .  S
C385        C386   1.416       .  A
C386        C387   1.507       .  S
C387        H391   1.111       .  S
C387        H392   1.111       .  S
C387        H393   1.110       .  S
C390        H394   1.110       .  S
C390        H395   1.106       .  S
C390        H396   1.111       .  S
C397        C398   1.400       .  A
C397        C402   1.404       .  A
C397        H404   1.084       .  S
C398        C399   1.413       .  A
C399        C400   1.401       .  A
C399        C406   1.508       .  S
C400        C401   1.400       .  A
C400        H405   1.084       .  S
C401        C402   1.416       .  A
C402        C403   1.508       .  S
C403        H407   1.111       .  S
C403        H408   1.109       .  S
C403        H409   1.111       .  S
C406        H410   1.109       .  S
C406        H411   1.111       .  S
C406        H412   1.111       .  S
C413        C414   1.398       .  A
C413        C418   1.403       .  A
C413        H420   1.084       .  S
C414        C415   1.408       .  A
C415        C416   1.401       .  A
C415        C422   1.508       .  S
C416        C417   1.407       .  A
C416        H421   1.084       .  S
C417        C418   1.419       .  A
C418        C419   1.508       .  S
C419        H423   1.111       .  S
C419        H424   1.110       .  S
C419        H425   1.110       .  S
C422        H426   1.110       .  S
C422        H427   1.107       .  S
C422        H428   1.111       .  S
C429        C430   1.401       .  A
C429        C434   1.398       .  A
C429        H436   1.084       .  S
C430        C431   1.417       .  A
C431        C432   1.399       .  A
C431        C438   1.509       .  S
C432        C433   1.401       .  A
C432        H437   1.084       .  S
C433        C434   1.417       .  A
C434        C435   1.510       .  S
C435        H439   1.111       .  S
C435        H440   1.109       .  S
C435        H441   1.110       .  S
C438        H442   1.109       .  S
C438        H443   1.110       .  S
C438        H444   1.111       .  S
C445        C446   1.404       .  A
C445        C450   1.408       .  A
C445        H452   1.084       .  S
C446        C447   1.414       .  A
C447        C448   1.400       .  A
C447        C454   1.510       .  S
C448        C449   1.402       .  A
C448        H453   1.085       .  S
C449        C450   1.412       .  A
C450        C451   1.505       .  S
C451        H455   1.111       .  S
C451        H457   1.110       .  S
C451       H1028   1.110       .  S
C454        H459   1.111   1_655  S
C454        H460   1.111   1_554  S
C454       H1030   1.109   1_554  S
H456       C1023   1.110       .  S
H458       C1026   1.109       .  S
C461        C462   1.407       .  A
C461        C466   1.399   1_554  A
C461        H468   1.083   1_554  S
C462        C463   1.421       .  A
C463        C464   1.410       .  A
C463        C470   1.507       .  S
C464        C465   1.404       .  A
C464        H469   1.084       .  S
C465        C466   1.414   1_554  A
C466        C467   1.510       .  S
C467        H471   1.111       .  S
C467        H472   1.110       .  S
C467        H473   1.109       .  S
C470        H475   1.109       .  S
C470        H476   1.111       .  S
C470       H1046   1.111       .  S
H474       C1042   1.110       .  S
C477        C478   1.399   1_556  A
C477        C482   1.406       .  A
C477        H484   1.085       .  S
C478        C479   1.409       .  A
C479        C480   1.405       .  A
C479        C486   1.508       .  S
C480        C481   1.410       .  A
C480        H485   1.083       .  S
C481        C482   1.426   1_554  A
C482        C483   1.509       .  S
C483        H487   1.111       .  S
C483        H488   1.110       .  S
C483       H1061   1.110       .  S
C486        H490   1.110       .  S
C486        H491   1.111       .  S
C486        H492   1.111       .  S
H489       C1055   1.109       .  S
C493        C494   1.403       .  A
C493        C498   1.395       .  A
C493        H500   1.085   1_554  S
C494        C495   1.414       .  A
C495        C496   1.411       .  A
C495        C502   1.505       .  S
C496        C497   1.407       .  A
C496        H501   1.084       .  S
C497        C498   1.415       .  A
C498        C499   1.510   1_554  S
C499        H504   1.106       .  S
C499       H1075   1.111       .  S
C499       H1077   1.110       .  S
C502        H506   1.109       .  S
C502        H507   1.110       .  S
C502        H508   1.111       .  S
H503       C1071   1.111       .  S
H505       C1071   1.110       .  S
C509        C510   1.404       .  A
C509        C514   1.408       .  A
C509        H516   1.084       .  S
C510        C511   1.415   1_556  A
C511        C512   1.404   1_554  A
C511        C518   1.509       .  S
C512        C513   1.404       .  A
C512        H517   1.084   1_556  S
C513        C514   1.416       .  A
C514        C515   1.506       .  S
C515        H519   1.111       .  S
C515        H520   1.110       .  S
C515       H1093   1.111       .  S
C518        H522   1.111       .  S
C518        H524   1.111       .  S
C518       H1095   1.108       .  S
H521       C1087   1.111       .  S
H523       C1090   1.109       .  S
C525        C530   1.409       .  A
C525       C1098   1.405       .  A
C525        H532   1.084       .  S
C526        C527   1.415       .  A
C526       C1097   1.406       .  A
C527        C528   1.404       .  A
C527        C534   1.510       .  S
C528        C529   1.409       .  A
C528        H533   1.084       .  S
C529        C583   1.499       .  S
C529       C1102   1.419       .  A
C530       C1101   1.419       .  A
C530        C531   1.507       .  S
C531        H535   1.111       .  S
C531        H536   1.109       .  S
C531       H1109   1.111       .  S
C534        H539   1.111       .  S
C534        H540   1.111       .  S
C534       H1110   1.109       .  S
H537       C1103   1.110       .  S
H538       C1106   1.109       .  S
C541        C546   1.402       .  A
C541       C1114   1.409   1_554  A
C541        H548   1.083       .  S
C542        C543   1.426       .  A
C542       C1113   1.410       .  A
C543        C544   1.411       .  A
C543        C550   1.507       .  S
C544        C545   1.399       .  A
C544        H549   1.084       .  S
C545       C1118   1.410       .  A
C546       C1117   1.412   1_554  A
C546        C547   1.510       .  S
C547        H551   1.111       .  S
C547        H552   1.111       .  S
C547        H553   1.108       .  S
C550        H554   1.110       .  S
C550        H555   1.110       .  S
C550        H556   1.111       .  S
C557        C558   1.401       .  A
C557        C562   1.399       .  A
C557       H1136   1.085       .  S
C558        C584   1.474       .  S
C558        C559   1.413       .  A
C559        C560   1.409       .  A
C559        C566   1.506       .  S
C560        C561   1.404       .  A
C560        H565   1.084       .  S
C561        C562   1.413       .  A
C562        C563   1.509   1_556  S
C563        H569   1.109       .  S
C563       H1139   1.111       .  S
C563       H1140   1.111   1_554  S
H564       C1129   1.084       .  S
C566        H571   1.111       .  S
C566        H572   1.111       .  S
C566       H1142   1.110       .  S
H567       C1135   1.111       .  S
H568       C1135   1.110       .  S
H570       C1138   1.110       .  S
O573       Ni581   1.926       .  S
O574       Ni581   1.924       .  S
O574        C584   1.281       .  A
O575       Ni581   1.926       .  S
O576       Ni581   1.930       .  S
O576        C586   1.283       .  A
O577       Ni582   1.923       .  S
O578       Ni582   1.921       .  S
O578        C585   1.284       .  A
O579       Ni582   1.911       .  S
O580       Ni582   1.911       .  S
O580        C583   1.280       .  A
C585       C1085   1.486       .  S
C586       C1114   1.503       .  S
O587       Ni595   1.911   1_665  S
O588       Ni595   1.908       .  S
O589       Ni595   1.908   1_565  S
O590       Ni595   1.908   1_655  S
O591       Ni596   1.924   1_645  S
O591        C600   1.282       .  A
O592       Ni596   1.929       .  S
O592        C599   1.284       .  A
O593       Ni596   1.932   1_545  S
O593        C598   1.284       .  A
O594       Ni596   1.931   1_655  S
O594        C597   1.283       .  A
C597       C1069   1.488       .  S
C598       C1034   1.504       .  S
C599       C1053   1.493       .  S
C600       C1018   1.485       .  S
O601        C622   1.267       .  A
O602       Ni625   1.905       .  S
O602        C611   1.266       .  A
O603       Ni607   1.907       .  S
O603       Ni625   1.911       .  S
O603        H626   0.964       .  S
C604        O621   1.272       .  A
C604        O613   1.275       .  A
C604        C954   1.470       .  S
O605       Ni624   1.918       .  S
O605        C611   1.268       .  A
O606       Ni624   1.911       .  S
Ni607       O610   1.916       .  S
Ni607       O612   1.901       .  S
C608        O618   1.273       .  A
C608       C1098   1.486       .  S
O609       Ni625   1.913       .  S
O609        C615   1.273       .  A
O610        C615   1.272       .  A
C611        C970   1.465       .  S
O612        C614   1.267       .  A
C614        O620   1.274       .  A
C614       C1037   1.482       .  S
C615       C1005   1.477       .  S
H616        O617   0.968       .  S
O617       Ni625   1.915       .  S
O617       Ni624   1.910       .  S
O618       Ni619   1.933       .  S
Ni619       O623   1.906       .  S
Ni619       O621   1.905       .  S
O620       Ni625   1.945       .  S
C622        O623   1.265       .  A
C622        C986   1.460       .  S
O627       Ni633   1.923       .  S
O627        C648   1.270       .  A
O628       Ni651   1.917       .  S
O628        C637   1.267       .  A
O629       Ni633   1.911       .  S
O629       Ni651   1.917       .  S
O629        H652   0.966       .  S
C630        O647   1.277       .  A
C630        O639   1.275       .  A
C630        C906   1.479       .  S
O631       Ni650   1.927       .  S
O632       Ni650   1.901       .  S
O632        C634   1.267       .  A
Ni633       O636   1.935       .  S
Ni633       O638   1.894       .  S
C634        O644   1.272       .  A
C634        C938   1.478       .  S
O635       Ni651   1.909       .  S
O635        C641   1.268       .  A
O636        C641   1.275       .  A
C637       C1021   1.483       .  S
O638        C640   1.268       .  A
O639       Ni650   1.920       .  S
C640        O646   1.278       .  A
C640        C893   1.485       .  S
C641        C925   1.501       .  S
O643       Ni645   1.907   1_554  S
O643       Ni650   1.908   1_554  S
O644       Ni645   1.934       .  S
Ni645       O649   1.909       .  S
Ni645       O647   1.921       .  S
O646       Ni651   1.950       .  S
C648       C1082   1.493       .  S
O653       Ni659   1.919       .  S
O654       Ni677   1.914       .  S
O655       Ni659   1.900       .  S
O655       Ni677   1.905       .  S
C656        O673   1.272       .  A
C656        O665   1.278       .  A
C656        C874   1.481       .  S
O657       Ni676   1.934       .  S
O657        C663   1.274       .  A
O658       Ni676   1.904       .  S
O658        C660   1.269       .  A
Ni659       O662   1.906       .  S
Ni659       O664   1.901       .  S
C660        O670   1.278       .  A
C660        C845   1.486       .  S
O661       Ni677   1.923       .  S
O661        C667   1.279       .  A
O662        C667   1.272       .  A
C663       C1133   1.495       .  S
O664        C666   1.268       .  A
O665       Ni676   1.923       .  S
C666        O672   1.275       .  A
C666        C858   1.482       .  S
C667        C826   1.475       .  S
H668        O669   0.966       .  S
O669       Ni671   1.904       .  S
O669       Ni676   1.896       .  S
O670       Ni671   1.946       .  S
Ni671       O675   1.920       .  S
Ni671       O673   1.905       .  S
O672       Ni677   1.940       .  S
C674        O675   1.269       .  A
C674       C1066   1.488       .  S
O679       Ni685   1.914       .  S
O679        C700   1.270       .  A
O680       Ni703   1.900       .  S
O680        C689   1.265       .  A
O681       Ni685   1.895       .  S
O681       Ni697   1.915       .  S
O681        H704   0.966       .  S
C682        O699   1.281       .  A
C682        O691   1.274       .  A
C682        C797   1.486       .  S
O683        C689   1.268       .  A
O684       Ni702   1.908       .  S
O684        C686   1.267       .  A
Ni685       O690   1.901       .  S
C686        O696   1.270       .  A
C686       C1050   1.476       .  S
O687       Ni703   1.911       .  S
O687        C693   1.272       .  A
O688        C693   1.273       .  A
C689        C810   1.456       .  S
O691       Ni702   1.909       .  S
C692        O698   1.275       .  A
C692       C1117   1.486       .  S
C693        C778   1.471       .  S
H694        O695   0.966       .  S
O695       Ni697   1.898       .  S
O695       Ni702   1.895       .  S
O696       Ni697   1.931       .  S
Ni697       O701   1.902       .  S
Ni697       O699   1.933       .  S
O698       Ni703   1.943       .  S
C700        O701   1.266       .  A
C700        C765   1.481       .  S
O705       Ni713   1.904       .  S
O705        C715   1.278       .  A
O706       Ni713   1.910   1_655  S
O706        C716   1.280       .  A
O707       Ni713   1.924   1_655  S
O707        C717   1.283       .  A
O708       Ni713   1.909       .  S
O708        C718   1.281       .  A
O709       Ni714   1.914       .  S
O709        C718   1.280       .  A
O710       Ni714   1.919   1_655  S
O710        C717   1.281       .  A
O711       Ni714   1.923   1_655  S
O711        C716   1.281       .  A
O712       Ni714   1.915       .  S
O712        C715   1.281       .  A
Ni713      Ni714   2.387       .  S
C715       C1002   1.468       .  S
C716        C941   1.475       .  S
C717        C922   1.496       .  S
C718        C989   1.479       .  S
O719       Ni727   1.927   1_455  S
O719        C729   1.284       .  A
O720       Ni727   1.934       .  S
O720        C730   1.283       .  A
O721       Ni727   1.906       .  S
O721        C731   1.278       .  A
O722       Ni727   1.905   1_455  S
O722        C732   1.278       .  A
O723       Ni728   1.907   1_455  S
O723        C732   1.281       .  A
O724       Ni728   1.913       .  S
O724        C731   1.282       .  A
O725       Ni728   1.913       .  S
O725        C730   1.280       .  A
O726       Ni728   1.906   1_455  S
O726        C729   1.278       .  A
Ni727      Ni728   2.385       .  S
C729        C794   1.480       .  S
C730        C861   1.484       .  S
C731        C877   1.483       .  S
C732        C813   1.479       .  S
O733       Ni741   1.916       .  S
O733        C743   1.282       .  A
O734       Ni741   1.904       .  S
O734        C744   1.280       .  A
O735       Ni741   1.889       .  S
O735        C745   1.275       .  A
O736       Ni741   1.893       .  S
O736        C746   1.276       .  A
O737       Ni742   1.923       .  S
O737        C746   1.283       .  A
O738       Ni742   1.917       .  S
O738        C745   1.281       .  A
O739       Ni742   1.914       .  S
O739        C744   1.280       .  A
O740       Ni742   1.925       .  S
O740        C743   1.282       .  A
Ni741      Ni742   2.391       .  S
C743        C842   1.485       .  S
C744        C781   1.472       .  S
C745        C762   1.463       .  S
C746        C829   1.463       .  S
O747       Ni755   1.924       .  S
O747        C757   1.281       .  A
O748       Ni755   1.914       .  S
O748        C758   1.280       .  A
O749       Ni755   1.915       .  S
O749        C759   1.281       .  A
O750       Ni755   1.919       .  S
O750        C760   1.283       .  A
O751       Ni756   1.912       .  S
O751        C760   1.279       .  A
O752       Ni756   1.905       .  S
O752        C759   1.278       .  A
O753       Ni756   1.903       .  S
O753        C758   1.280       .  A
O754       Ni756   1.913       .  S
O754        C757   1.281       .  A
Ni755      Ni756   2.387       .  S
C757        C890   1.478       .  S
C758        C957   1.478       .  S
C759        C973   1.470       .  S
C760        C909   1.485       .  S
C761        C762   1.402       .  A
C761        C766   1.404       .  A
C761        H768   1.084       .  S
C762        C763   1.410       .  A
C763        C764   1.392       .  A
C763        C770   1.512       .  S
C764        C765   1.407       .  A
C764        H769   1.084       .  S
C765        C766   1.419       .  A
C766        C767   1.508       .  S
C767        H771   1.111       .  S
C767        H772   1.110       .  S
C767        H773   1.110       .  S
C770        H774   1.109       .  S
C770        H775   1.111       .  S
C770        H776   1.111       .  S
C777        C778   1.403       .  A
C777        C782   1.400       .  A
C777        H784   1.084       .  S
C778        C779   1.413       .  A
C779        C780   1.400       .  A
C779        C786   1.509       .  S
C780        C781   1.403       .  A
C780        H785   1.084       .  S
C781        C782   1.415       .  A
C782        C783   1.509       .  S
C783        H787   1.111       .  S
C783        H788   1.109       .  S
C783        H789   1.111       .  S
C786        H790   1.109       .  S
C786        H791   1.111       .  S
C786        H792   1.111       .  S
C793        C794   1.400       .  A
C793        C798   1.403       .  A
C793        H800   1.084       .  S
C794        C795   1.417       .  A
C795        C796   1.405       .  A
C795        C802   1.508       .  S
C796        C797   1.404       .  A
C796        H801   1.084       .  S
C797        C798   1.421       .  A
C798        C799   1.510       .  S
C799        H803   1.111       .  S
C799        H804   1.110       .  S
C799        H805   1.109       .  S
C802        H806   1.111       .  S
C802        H807   1.108       .  S
C802        H808   1.111       .  S
C809        C810   1.397       .  A
C809        C814   1.401       .  A
C809        H816   1.085       .  S
C810        C811   1.406       .  A
C811        C812   1.397       .  A
C811        C818   1.508       .  S
C812        C813   1.407       .  A
C812        H817   1.084       .  S
C813        C814   1.420       .  A
C814        C815   1.508       .  S
C815        H819   1.111       .  S
C815        H820   1.110       .  S
C815        H821   1.110       .  S
C818        H822   1.109       .  S
C818        H823   1.110       .  S
C818        H824   1.111       .  S
C825        C826   1.400       .  A
C825        C830   1.398       .  A
C825        H832   1.085       .  S
C826        C827   1.422       .  A
C827        C828   1.400       .  A
C827        C834   1.510       .  S
C828        C829   1.395       .  A
C828        H833   1.085       .  S
C829        C830   1.416       .  A
C830        C831   1.509       .  S
C831        H835   1.110       .  S
C831        H836   1.111       .  S
C831        H837   1.105       .  S
C834        H838   1.111       .  S
C834        H839   1.111       .  S
C834        H840   1.109       .  S
C841        C842   1.401       .  A
C841        C846   1.402       .  A
C841        H848   1.085       .  S
C842        C843   1.418       .  A
C843        C844   1.411       .  A
C843        C850   1.506       .  S
C844        C845   1.403       .  A
C844        H849   1.084       .  S
C845        C846   1.419       .  A
C846        C847   1.510       .  S
C847        H851   1.111       .  S
C847        H852   1.109       .  S
C847        H853   1.108       .  S
C850        H854   1.110       .  S
C850        H855   1.111       .  S
C850        H856   1.111       .  S
C857        C858   1.401       .  A
C857        C862   1.401       .  A
C857        H864   1.085       .  S
C858        C859   1.415       .  A
C859        C860   1.412       .  A
C859        C866   1.506       .  S
C860        C861   1.406       .  A
C860        H865   1.084       .  S
C861        C862   1.416       .  A
C862        C863   1.509       .  S
C863        H867   1.111       .  S
C863        H868   1.109       .  S
C863        H869   1.111       .  S
C866        H870   1.111       .  S
C866        H871   1.110       .  S
C866        H872   1.111       .  S
C873        C874   1.402       .  A
C873        C878   1.401       .  A
C873        H880   1.084       .  S
C874        C875   1.419       .  A
C875        C876   1.401       .  A
C875        C882   1.511       .  S
C876        C877   1.404       .  A
C876        H881   1.084       .  S
C877        C878   1.420       .  A
C878        C879   1.509       .  S
C879        H883   1.111       .  S
C879        H884   1.109       .  S
C879        H885   1.111       .  S
C882        H886   1.110       .  S
C882        H887   1.110       .  S
C882        H888   1.111       .  S
C889        C890   1.403       .  A
C889        C894   1.409       .  A
C889        H896   1.084       .  S
C890        C891   1.413       .  A
C891        C892   1.401       .  A
C891        C898   1.510       .  S
C892        C893   1.406       .  A
C892        H897   1.084       .  S
C893        C894   1.417       .  A
C894        C895   1.507       .  S
C895        H899   1.111       .  S
C895        H900   1.110       .  S
C895        H901   1.110       .  S
C898        H902   1.109       .  S
C898        H903   1.111       .  S
C898        H904   1.111       .  S
C905        C906   1.402       .  A
C905        C910   1.403       .  A
C905        H912   1.081       .  S
C906        C907   1.412       .  A
C907        C908   1.405       .  A
C907        C914   1.508       .  S
C908        C909   1.408       .  A
C908        H913   1.084       .  S
C909        C910   1.417       .  A
C910        C911   1.508       .  S
C911        H915   1.111       .  S
C911        H916   1.109       .  S
C911        H917   1.111       .  S
C914        H918   1.111       .  S
C914        H919   1.109       .  S
C914        H920   1.111       .  S
C921        C922   1.408       .  A
C921        C926   1.410       .  A
C921        H928   1.084       .  S
C922        C923   1.418       .  A
C923        C924   1.405       .  A
C923        C930   1.509       .  S
C924        C925   1.408       .  A
C924        H929   1.083       .  S
C925        C926   1.422       .  A
C926        C927   1.509       .  S
C927        H931   1.111       .  S
C927        H932   1.110       .  S
C927        H933   1.110       .  S
C930        H934   1.110       .  S
C930        H935   1.110       .  S
C930        H936   1.111       .  S
C937        C938   1.401       .  A
C937        C942   1.401       .  A
C937        H944   1.085       .  S
C938        C939   1.414       .  A
C939        C940   1.408       .  A
C939        C946   1.503       .  S
C940        C941   1.402       .  A
C940        H945   1.084       .  S
C941        C942   1.415       .  A
C942        C943   1.509       .  S
C943        H947   1.111       .  S
C943        H948   1.111       .  S
C943        H949   1.109       .  S
C946        H950   1.110       .  S
C946        H951   1.107       .  S
C946        H952   1.111       .  S
C953        C954   1.402       .  A
C953        C958   1.401       .  A
C953        H960   1.084       .  S
C954        C955   1.413       .  A
C955        C956   1.398       .  A
C955        C962   1.510       .  S
C956        C957   1.405       .  A
C956        H961   1.084       .  S
C957        C958   1.417       .  A
C958        C959   1.508       .  S
C959        H963   1.111       .  S
C959        H964   1.110       .  S
C959        H965   1.110       .  S
C962        H966   1.110       .  S
C962        H967   1.109       .  S
C962        H968   1.111       .  S
C969        C970   1.400       .  A
C969        C974   1.403       .  A
C969        H976   1.084       .  S
C970        C971   1.411       .  A
C971        C972   1.398       .  A
C971        C978   1.508       .  S
C972        C973   1.401       .  A
C972        H977   1.084       .  S
C973        C974   1.416       .  A
C974        C975   1.508       .  S
C975        H979   1.111       .  S
C975        H980   1.109       .  S
C975        H981   1.111       .  S
C978        H982   1.109       .  S
C978        H983   1.110       .  S
C978        H984   1.111       .  S
C985        C986   1.400       .  A
C985        C990   1.403       .  A
C985        H992   1.085       .  S
C986        C987   1.407       .  A
C987        C988   1.398       .  A
C987        C994   1.508       .  S
C988        C989   1.406       .  A
C988        H993   1.084       .  S
C989        C990   1.418       .  A
C990        C991   1.508       .  S
C991        H995   1.111       .  S
C991        H996   1.111       .  S
C991        H997   1.110       .  S
C994        H998   1.110       .  S
C994        H999   1.109       .  S
C994       H1000   1.111       .  S
C1001      C1002   1.397       .  A
C1001      C1006   1.397       .  A
C1001      H1008   1.085       .  S
C1002      C1003   1.413       .  A
C1003      C1004   1.404       .  A
C1003      C1010   1.508       .  S
C1004      C1005   1.405       .  A
C1004      H1009   1.084       .  S
C1005      C1006   1.419       .  A
C1006      C1007   1.510       .  S
C1007      H1011   1.111       .  S
C1007      H1012   1.109       .  S
C1007      H1013   1.110       .  S
C1010      H1014   1.109       .  S
C1010      H1015   1.111       .  S
C1010      H1016   1.111       .  S
C1017      C1018   1.408       .  A
C1017      C1022   1.410       .  A
C1017      H1024   1.084       .  S
C1018      C1019   1.416       .  A
C1019      C1020   1.400       .  A
C1019      C1026   1.510       .  S
C1020      C1021   1.404       .  A
C1020      H1025   1.085       .  S
C1021      C1022   1.413       .  A
C1022      C1023   1.505       .  S
C1023      H1027   1.111       .  S
C1023      H1029   1.110       .  S
C1026      H1031   1.111   1_655  S
C1026      H1032   1.111       .  S
C1033      C1034   1.411       .  A
C1033      C1038   1.405       .  A
C1033      H1040   1.083       .  S
C1034      C1035   1.425       .  A
C1035      C1036   1.411       .  A
C1035      C1042   1.507       .  S
C1036      C1037   1.401       .  A
C1036      H1041   1.084       .  S
C1037      C1038   1.411       .  A
C1038      C1039   1.509       .  S
C1039      H1043   1.111       .  S
C1039      H1044   1.111       .  S
C1039      H1045   1.109       .  S
C1042      H1047   1.110       .  S
C1042      H1048   1.111       .  S
C1049      C1050   1.401       .  A
C1049      C1054   1.409       .  A
C1049      H1056   1.084       .  S
C1050      C1051   1.410       .  A
C1051      C1052   1.405       .  A
C1051      C1058   1.508       .  S
C1052      C1053   1.408       .  A
C1052      H1057   1.084       .  S
C1053      C1054   1.421       .  A
C1054      C1055   1.507       .  S
C1055      H1059   1.111       .  S
C1055      H1060   1.110       .  S
C1058      H1062   1.111       .  S
C1058      H1063   1.110       .  S
C1058      H1064   1.111       .  S
C1065      C1066   1.404       .  A
C1065      C1070   1.401       .  A
C1065      H1072   1.085       .  S
C1066      C1067   1.414       .  A
C1067      C1068   1.414       .  A
C1067      C1074   1.505       .  S
C1068      C1069   1.409       .  A
C1068      H1073   1.084       .  S
C1069      C1070   1.416       .  A
C1070      C1071   1.510       .  S
C1071      H1076   1.107   1_655  S
C1074      H1078   1.110       .  S
C1074      H1079   1.110       .  S
C1074      H1080   1.111       .  S
C1081      C1082   1.407       .  A
C1081      C1086   1.412       .  A
C1081      H1088   1.084       .  S
C1082      C1083   1.421       .  A
C1083      C1084   1.402       .  A
C1083      C1090   1.509       .  S
C1084      C1085   1.399       .  A
C1084      H1089   1.084       .  S
C1085      C1086   1.418       .  A
C1086      C1087   1.507       .  S
C1087      H1091   1.111       .  S
C1087      H1092   1.110       .  S
C1090      H1094   1.110       .  S
C1090      H1096   1.111       .  S
C1097      C1102   1.412       .  A
C1097      H1104   1.083       .  S
C1098      C1099   1.416   1_556  A
C1099      C1100   1.404       .  A
C1099      C1106   1.510       .  S
C1100      C1101   1.407   1_554  A
C1100      H1105   1.084       .  S
C1102      C1103   1.506       .  S
C1103      H1107   1.111       .  S
C1103      H1108   1.109       .  S
C1106      H1111   1.111       .  S
C1106      H1112   1.111       .  S
C1113      C1118   1.404       .  A
C1113      H1120   1.083       .  S
C1114      C1115   1.424       .  A
C1115      C1116   1.415       .  A
C1115      C1122   1.507       .  S
C1116      C1117   1.404       .  A
C1116      H1121   1.084       .  S
C1118      C1119   1.508       .  S
C1119      H1123   1.111       .  S
C1119      H1124   1.111       .  S
C1119      H1125   1.109       .  S
C1122      H1126   1.111       .  S
C1122      H1127   1.109       .  S
C1122      H1128   1.111       .  S
C1129      C1130   1.404       .  A
C1129      C1134   1.404       .  A
C1130      C1131   1.417       .  A
C1131      C1132   1.416       .  A
C1131      C1138   1.505       .  S
C1132      C1133   1.408       .  A
C1132      H1137   1.084       .  S
C1133      C1134   1.418       .  A
C1134      C1135   1.510       .  S
C1135      H1141   1.109       .  S
C1138      H1143   1.111       .  S
C1138      H1144   1.111       .  S
