geometry optimzed in LAMMPS
_audit_creation_date              2020-11-30 
_audit_creation_method            'lammps2cif' 
_symmetry_space_group_name_H-M    'P1' 
_symmetry_Int_Tables_number       1 
_symmetry_cell_setting            triclinic 
loop_ 
_symmetry_equiv_pos_as_xyz 
  x,y,z 
_cell_length_a                    28.16242461 
_cell_length_b                    28.775148945279664 
_cell_length_c                    28.61466101147799 
_cell_angle_alpha                 89.84197930761127 
_cell_angle_beta                  89.86026358108047 
_cell_angle_gamma                 90.24085023150334 
loop_ 
_atom_site_label 
_atom_site_type_symbol 
_atom_site_fract_x 
_atom_site_fract_y 
_atom_site_fract_z 
_atom_site_charge 
C1          C  0.32857479  0.32996307  0.15413397    -0.02800
C2          C  0.32919569  0.10434836  0.38488202    -0.02800
C3          C  0.09657185  0.10306928  0.15659473    -0.02800
C4          C  0.09896927  0.33224853  0.38064902    -0.02800
C5          C  0.32943139  0.08762784  0.66662442    -0.02800
C6          C  0.09800967  0.10843976  0.88952168    -0.02800
C7          C  0.10824581  0.33753403  0.65364996    -0.02800
C8          C  0.33246782  0.33721140  0.87423813    -0.02800
C9          C  0.36035474  0.35914876  0.12202590     0.42200
N10         N  0.37913641  0.40844564  0.06798655     0.01100
C11         C  0.58239478  0.41079134  0.93161174    -0.06800
H12         H  0.61519891  0.42840875  0.10571228     0.06600
C13         C  0.52460176  0.58195758  0.10292447    -0.07200
Co14       Co  0.46651946  0.38031345  0.01642624     0.74200
N15         N  0.55199813  0.41478595  0.06679067    -0.26300
Co16       Co  0.55077914  0.46839898  0.01799488     0.74100
C17         C  0.57124319  0.57006686  0.12209642     0.42300
N18         N  0.40910365  0.54609216  0.07460055     0.00700
N19         N  0.55008669  0.51931559  0.07023326     0.00800
N20         N  0.52776218  0.35325772  0.93147889    -0.47200
H21         H  0.42623647  0.31450760  0.10580811     0.06500
N22         N  0.52039073  0.38082822  0.06740127     0.01100
N23         N  0.54782084  0.52166378  0.96901278     0.00800
C24         C  0.56832511  0.56997432  0.91498952     0.42400
N25         N  0.37677836  0.51271178  0.07393130    -0.25800
C26         C  0.40567580  0.35135343  0.93150040    -0.06700
N27         N  0.34624998  0.39808877  0.09948993    -0.46900
N28         N  0.58098824  0.53078030  0.93755225    -0.47100
C29         C  0.36207915  0.36634031  0.90844869     0.42200
N30         N  0.51897857  0.38422686  0.96471133     0.01100
N31         N  0.37383749  0.52028351  0.97297636    -0.25800
N32         N  0.41375543  0.37772836  0.06723650    -0.26300
N33         N  0.40696551  0.55292954  0.97334653     0.00700
H34         H  0.30326745  0.51904746  0.94409647     0.06600
H35         H  0.50357814  0.61667372  0.93090792     0.06600
N36         N  0.55070381  0.41800665  0.96567029    -0.26400
N37         N  0.51512389  0.54946075  0.07124009    -0.26000
N38         N  0.37887369  0.41314398  0.96547974     0.01100
C39         C  0.57004329  0.36300774  0.12203153     0.42500
C40         C  0.34597255  0.52011142  0.10912303    -0.07200
N41         N  0.51395262  0.55322691  0.96996508    -0.26000
H42         H  0.50194654  0.61137579  0.10847539     0.06600
N43         N  0.52967903  0.34909097  0.10010329    -0.47200
H44         H  0.31422785  0.49984592  0.11582024     0.06600
C45         C  0.35212905  0.58219781  0.92998553     0.42300
C46         C  0.40518973  0.34534455  0.10004146    -0.06700
Co47       Co  0.37618957  0.46336987  0.01973747     0.73800
N48         N  0.40124693  0.57694515  0.10802573    -0.46900
C49         C  0.56698174  0.36799318  0.90816039     0.42600
N50         N  0.34698900  0.40452662  0.93224169    -0.46900
Co51       Co  0.46126978  0.55076680  0.02217397     0.73900
C52         C  0.52363335  0.58525529  0.93688136    -0.07200
C53         C  0.58452570  0.40662951  0.09944441    -0.06800
N54         N  0.41319994  0.38192161  0.96580755    -0.26300
N55         N  0.58489668  0.53088433  0.09928642    -0.47100
H56         H  0.61383352  0.43169083  0.92555367     0.06600
C57         C  0.33751600  0.53591250  0.94709022    -0.07200
Cl58       Cl  0.46357275  0.46574389  0.01895222    -0.50200
C59         C  0.36246854  0.56285019  0.13235459     0.42300
H60         H  0.42757257  0.32137563  0.92485294     0.06500
N61         N  0.39497580  0.59058750  0.94924386    -0.46900
C62         C  0.33398939  0.59443813  0.16522654    -0.02800
C63         C  0.10628028  0.83100476  0.15042583    -0.02800
C64         C  0.09792716  0.60752622  0.38422958    -0.02800
C65         C  0.33244050  0.83719289  0.37525315    -0.02800
C66         C  0.36152334  0.86884639  0.40745203     0.42200
N67         N  0.40760945  0.88543306  0.46548931     0.01100
C68         C  0.40480789  0.07896946  0.60884550    -0.06800
H69         H  0.42722350  0.11875062  0.43349460     0.06600
C70         C  0.58487671  0.02672117  0.43686876    -0.07200
Co71       Co  0.37622627  0.96945462  0.51845112     0.74200
N72         N  0.41457261  0.05471556  0.47103160    -0.26300
Co73       Co  0.46743468  0.05089826  0.52259498     0.74100
C74         C  0.57043423  0.07192577  0.41739243     0.42300
N75         N  0.54915952  0.91064667  0.46700753     0.00700
N76         N  0.52133981  0.05052871  0.47165157     0.00800
N77         N  0.34575479  0.02573167  0.60464117    -0.47200
H78         H  0.31466824  0.93279544  0.42278197     0.06500
N79         N  0.37979673  0.02389867  0.46954209     0.01100
N80         N  0.52020097  0.04579848  0.57400723     0.00800
C81         C  0.56964968  0.06491216  0.62915523     0.42400
N82         N  0.51385694  0.88034815  0.46747038    -0.25800
C83         C  0.33823604  0.90457189  0.59761980    -0.06700
N84         N  0.39947308  0.85436522  0.43237574    -0.46900
N85         N  0.52915098  0.07705109  0.60674333    -0.47100
C86         C  0.35090833  0.85933516  0.61770571     0.42200
N87         N  0.37845896  0.01888766  0.57187410     0.01100
N88         N  0.51247758  0.87807846  0.56877655    -0.25800
N89         N  0.37620986  0.91933350  0.46539549    -0.26300
N90         N  0.54801890  0.90824997  0.56903876     0.00700
H91         H  0.49999144  0.81394832  0.60609562     0.06600
H92         H  0.61958999  0.00464191  0.60693956     0.06600
N93         N  0.41327953  0.04972212  0.57337671    -0.26400
N94         N  0.55267313  0.01650361  0.47002073    -0.26000
N95         N  0.40465245  0.88152532  0.56778106     0.01100
C96         C  0.36106482  0.07428153  0.41634958     0.42500
C97         C  0.52253584  0.84756800  0.43566118    -0.07200
N98         N  0.55315892  0.01345970  0.57178755    -0.26000
H99         H  0.61630255  0.00651342  0.42953117     0.06600
N100        N  0.34685892  0.03483863  0.43835268    -0.47200
H101        H  0.50005338  0.81764925  0.43063554     0.06600
C102        C  0.56684989  0.85763073  0.62169636     0.42300
C103        C  0.34569913  0.91199977  0.43009874    -0.06700
Co104      Co  0.45953100  0.88082400  0.51757633     0.73800
N105        N  0.58295913  0.89919594  0.43646081    -0.46900
C106        C  0.35984941  0.06303442  0.62984970     0.42600
N107        N  0.39204344  0.84698055  0.59623964    -0.46900
Co108      Co  0.55161890  0.96222875  0.51929046     0.73900
C109        C  0.58647560  0.02315455  0.60406621    -0.07200
C110        C  0.40607727  0.08769296  0.43872485    -0.06800
N111        N  0.37309439  0.91526384  0.56734422    -0.26300
N112        N  0.53117728  0.08448603  0.44158212    -0.47100
H113        H  0.42633492  0.10898228  0.61730138     0.06600
C114        C  0.52116113  0.84496696  0.60074326    -0.07200
Cl115      Cl  0.46376548  0.96583740  0.51948486    -0.50200
C116        C  0.56842871  0.85980798  0.41436120     0.42300
H117        H  0.30584510  0.92415058  0.60208100     0.06500
N118        N  0.58171701  0.89654560  0.59911254    -0.46900
C119        C  0.59755009  0.33899914  0.87486986    -0.02800
C120        C  0.82691934  0.32626603  0.65000238    -0.02800
C121        C  0.59625939  0.09976009  0.66068542    -0.02800
C122        C  0.82715492  0.11207430  0.89871155    -0.02800
C123        C  0.31953577  0.61956946  0.90954256    -0.02800
C124        C  0.31551000  0.82440801  0.63863888    -0.02800
C125        C  0.10411088  0.60343271  0.65078998    -0.02800
C126        C  0.08858683  0.82236815  0.89339526    -0.02800
C127        C  0.59961830  0.82780043  0.38398303    -0.02800
C128        C  0.81813839  0.60084984  0.39855412    -0.02800
C129        C  0.60512274  0.60225669  0.14905209    -0.02800
C130        C  0.83736287  0.81284609  0.14447333    -0.02800
C131        C  0.60077825  0.59587341  0.88069120    -0.02800
C132        C  0.81947078  0.59174092  0.65863192    -0.02800
C133        C  0.59957665  0.82580034  0.64955243    -0.02800
C134        C  0.81589013  0.84890905  0.87844277    -0.02800
C135        C  0.06754543  0.07067804  0.12487736     0.42200
N136        N  0.02053764  0.01426755  0.10566792     0.01100
C137        C  0.01571858  0.88445813  0.90201865    -0.06800
H138        H  0.99950436  0.06181188  0.87290539     0.06600
C139        C  0.84279656  0.05572896  0.97241542    -0.07200
Co140      Co  0.04960179  0.96791035  0.01633765     0.74200
N141        N  0.01142956  0.02122073  0.93516255    -0.26300
Co142      Co  0.95714441  0.97118114  0.93594439     0.74100
C143        C  0.85751161  0.08015702  0.92943066     0.42300
N144        N  0.87910967  0.01300668  0.08278578     0.00700
N145        N  0.90500124  0.02278323  0.94325331     0.00800
N146        N  0.07514102  0.88457943  0.95477386    -0.47200
H147        H  0.11243537  0.06004707  0.05799456     0.06500
N148        N  0.04651200  0.02016997  0.96559642     0.01100
N149        N  0.90271544  0.92109652  0.93640061     0.00800
C150        C  0.85003552  0.87121211  0.91335509     0.42400
N151        N  0.91465083  0.01100554  0.11258936    -0.25800
C152        C  0.08746299  0.88439945  0.07449911    -0.06700
N153        N  0.02963310  0.04505207  0.13898050    -0.46900
N154        N  0.89048183  0.89381702  0.90099416    -0.47100
C155        C  0.07459821  0.86061921  0.11840976     0.42200
N156        N  0.04477473  0.91862116  0.96284294     0.01100
N157        N  0.91610574  0.90976787  0.10563050    -0.25800
N158        N  0.05110479  0.01682092  0.07066750    -0.26300
N159        N  0.88035336  0.91133500  0.07586841     0.00700
H160        H  0.93358945  0.86316681  0.16204772     0.06600
H161        H  0.80493080  0.88339614  0.97949664     0.06600
N162        N  0.00965742  0.91953845  0.93236121    -0.26400
N163        N  0.87391354  0.02085009  0.97789764    -0.26000
N164        N  0.02203567  0.91262590  0.10122932     0.01100
C165        C  0.06668447  0.07453993  0.91728213     0.42500
C166        C  0.90617287  0.04055915  0.14759226    -0.07200
N167        N  0.87162819  0.91959533  0.97093721    -0.26000
H168        H  0.81195863  0.06143039  0.99420657     0.06600
N169        N  0.08047450  0.05084053  0.95581554    -0.47200
H170        H  0.92752281  0.04394167  0.17878414     0.06600
C171        C  0.86616809  0.85019431  0.11811983     0.42300
C172        C  0.08198097  0.05135753  0.07944903    -0.06700
Co173      Co  0.96829885  0.96185792  0.10701198     0.73800
N174        N  0.84532678  0.04190389  0.09670388    -0.46900
C175        C  0.05942901  0.86069686  0.91710527     0.42600
N176        N  0.03379024  0.88097635  0.13288187    -0.46900
Co177      Co  0.87530793  0.96618894  0.02703530     0.73900
C178        C  0.83705506  0.88941341  0.95953984    -0.07200
C179        C  0.02070283  0.05462648  0.90353682    -0.06800
N180        N  0.05311315  0.91556441  0.06695076    -0.26300
N181        N  0.89611970  0.05706607  0.91348691    -0.47100
H182        H  0.99203724  0.87716107  0.87340299     0.06600
C183        C  0.91049960  0.87243645  0.13338057    -0.07200
Cl184      Cl  0.96254791  0.96681535  0.02153364    -0.50200
C185        C  0.86047593  0.06201460  0.13681776     0.42300
H186        H  0.11853747  0.88158992  0.05276375     0.06500
N187        N  0.84946208  0.87701982  0.08274978    -0.46900
C188        C  0.59947931  0.10398321  0.38491890    -0.02800
C189        C  0.82736204  0.08175510  0.17368852    -0.02800
C190        C  0.59501604  0.34037543  0.16407161    -0.02800
C191        C  0.82679452  0.33848873  0.37774038    -0.02800
C192        C  0.07245265  0.36189955  0.62123764     0.42200
N193        N  0.01682058  0.40991560  0.60190708     0.01100
C194        C  0.88143512  0.41308885  0.39836906    -0.06800
H195        H  0.05370140  0.43063977  0.36616946     0.06600
C196        C  0.04598919  0.59077487  0.46269645    -0.07200
Co197      Co  0.96511818  0.38194266  0.51438931     0.74200
N198        N  0.01621893  0.42049632  0.43125748    -0.26300
Co199      Co  0.96419246  0.47317005  0.43498819     0.74100
C200        C  0.06566103  0.57864444  0.41663753     0.42300
N201        N  0.01514235  0.54958834  0.57783160     0.00700
N202        N  0.01475922  0.52643213  0.43840919     0.00800
N203        N  0.88117352  0.35298541  0.44908060    -0.47200
H204        H  0.06093396  0.32031687  0.55262204     0.06500
N205        N  0.01589252  0.38580506  0.46158348     0.01100
N206        N  0.91151365  0.52447382  0.44026505     0.00800
C207        C  0.85442106  0.57194237  0.42537501     0.42400
N208        N  0.01643359  0.51514057  0.60832975    -0.25800
C209        C  0.88318796  0.34459049  0.57630557    -0.06700
N210        N  0.04781221  0.39975812  0.63498621    -0.46900
N211        N  0.87814409  0.53434824  0.40916814    -0.47100
C212        C  0.86327307  0.35519478  0.62237308     0.42200
N213        N  0.91248724  0.38542007  0.46165360     0.01100
N214        N  0.91315469  0.51345873  0.61014451    -0.25800
N215        N  0.01782385  0.38012190  0.56689265    -0.26300
N216        N  0.91232260  0.54834572  0.58010533     0.00700
H217        H  0.87473242  0.49967123  0.67383377     0.06600
H218        H  0.87056716  0.61455430  0.49166613     0.06600
N219        N  0.91335384  0.42057746  0.43202091    -0.26400
N220        N  0.01455359  0.55679306  0.47293803    -0.26000
N221        N  0.91438791  0.40800571  0.60295611     0.01100
C222        C  0.06767825  0.36455094  0.41029634     0.42500
C223        C  0.05049314  0.52467219  0.63978613    -0.07200
N224        N  0.91174335  0.55400347  0.47545516    -0.26000
H225        H  0.05135311  0.62201764  0.48297467     0.06600
N226        N  0.04505960  0.35171793  0.44991113    -0.47200
H227        H  0.05843191  0.50302399  0.66957222     0.06600
C228        C  0.85853854  0.56603847  0.63113495     0.42300
C229        C  0.05270943  0.34920660  0.57516098    -0.06700
Co230      Co  0.96517248  0.46153610  0.60645264     0.73800
N231        N  0.04573121  0.58315609  0.58730829    -0.46900
C232        C  0.85925068  0.36816766  0.40946944     0.42600
N233        N  0.88462408  0.39500375  0.63660697    -0.46900
Co234      Co  0.96347950  0.55264215  0.52663268     0.73900
C235        C  0.87722805  0.58506833  0.46926224    -0.07200
C236        C  0.04806746  0.41044780  0.39765314    -0.06800
N237        N  0.91459416  0.37856274  0.56761251    -0.26300
N238        N  0.04383368  0.53868205  0.40406574    -0.47100
H239        H  0.87693560  0.43595403  0.36890530     0.06600
C240        C  0.88049610  0.52131284  0.64335901    -0.07200
Cl241      Cl  0.96462740  0.46724566  0.52065702    -0.50200
C242        C  0.07020980  0.57024495  0.62565993     0.42300
H243        H  0.87791425  0.31422628  0.55470143     0.06500
N244        N  0.88061364  0.58053332  0.59151783    -0.46900
C245        C  0.63700844  0.41948777  0.26079813    -0.11100
C246        C  0.68643374  0.41627058  0.25331491     0.06000
C247        C  0.70242823  0.40703220  0.20779681    -0.09900
C248        C  0.67061989  0.39010257  0.17477211    -0.11500
C249        C  0.62298881  0.38075009  0.18776266    -0.01300
C250        C  0.60518391  0.40574769  0.22592302    -0.10400
C251        C  0.71980878  0.41081187  0.29319544     0.06000
H252        H  0.73987835  0.40609523  0.19939518     0.08000
H253        H  0.68481347  0.37748767  0.14198114     0.11400
H254        H  0.56749074  0.40577511  0.23350838     0.11700
H255        H  0.62307894  0.42927858  0.29465095     0.08000
C256        C  0.70539828  0.38401552  0.33156166    -0.11100
C257        C  0.73869066  0.36341753  0.36083204    -0.10400
C258        C  0.78823283  0.37047378  0.35456234    -0.01300
C259        C  0.80161918  0.40320702  0.31976731    -0.11500
C260        C  0.76822181  0.42163754  0.28872426    -0.09900
H261        H  0.66855408  0.37396164  0.33592830     0.08000
H262        H  0.72394311  0.33886736  0.38511749     0.11700
H263        H  0.83851952  0.40830058  0.31081146     0.11400
H264        H  0.78095893  0.44092891  0.25874857     0.08000
C265        C  0.71483096  0.15534176  0.16864425    -0.11100
C266        C  0.72531343  0.18749090  0.13353549     0.06000
C267        C  0.76600834  0.18112435  0.10586207    -0.09900
C268        C  0.79693260  0.14384616  0.11512140    -0.11500
C269        C  0.78827539  0.11340528  0.15319585    -0.01300
C270        C  0.74694255  0.12120911  0.18009517    -0.10400
C271        C  0.69881372  0.23156470  0.13505776     0.06000
H272        H  0.77571683  0.20672304  0.07977657     0.08000
H273        H  0.82943103  0.14125813  0.09505495     0.11400
H274        H  0.74027122  0.10294064  0.21242572     0.11700
H275        H  0.68411637  0.16001841  0.19106564     0.08000
C276        C  0.66985383  0.24686201  0.09836925    -0.11100
C277        C  0.63691068  0.28303782  0.10563857    -0.10400
C278        C  0.63211804  0.30322279  0.15040661    -0.01300
C279        C  0.66270776  0.28760617  0.18619538    -0.11500
C280        C  0.69639675  0.25395896  0.17817389    -0.09900
H281        H  0.67155910  0.22919470  0.06528598     0.08000
H282        H  0.61417114  0.29353325  0.07711712     0.11700
H283        H  0.66083009  0.30200342  0.22104278     0.11400
H284        H  0.71868006  0.24301699  0.20700107     0.08000
C285        C  0.85146562  0.16233204  0.27858606    -0.11100
C286        C  0.88488403  0.19343845  0.26022377     0.06000
C287        C  0.90424105  0.18474729  0.21595770    -0.09900
C288        C  0.88983962  0.14564456  0.19025925    -0.11500
C289        C  0.85421405  0.11507941  0.20739913    -0.01300
C290        C  0.83508022  0.12516690  0.25202459    -0.10400
C291        C  0.88713421  0.24011665  0.28135189     0.06000
H292        H  0.92839255  0.20964526  0.20016592     0.08000
H293        H  0.90379974  0.14168785  0.15524570     0.11400
H294        H  0.80463589  0.10668280  0.26554165     0.11700
H295        H  0.83403924  0.16974151  0.31152256     0.08000
C296        C  0.85524716  0.27294990  0.26435526    -0.11100
C297        C  0.83923828  0.30852102  0.29305655    -0.10400
C298        C  0.85720736  0.31460142  0.33902074    -0.01300
C299        C  0.89597854  0.28620570  0.35220206    -0.11500
C300        C  0.90880689  0.24772557  0.32478119    -0.09900
H301        H  0.83731335  0.26707916  0.23138507     0.08000
H302        H  0.80847211  0.32661301  0.28027528     0.11700
H303        H  0.91079112  0.28878519  0.38693964     0.11400
H304        H  0.93277660  0.22204407  0.33905797     0.08000
C305        C  0.54986558  0.27612900  0.27495607    -0.11100
C306        C  0.52836127  0.23721861  0.25527332     0.06000
C307        C  0.51880387  0.23762620  0.20710459    -0.09900
C308        C  0.53377144  0.27509056  0.17884696    -0.11500
C309        C  0.56096950  0.31231099  0.19742303    -0.01300
C310        C  0.56756442  0.31164614  0.24673853    -0.10400
C311        C  0.53033644  0.19328159  0.28247830     0.06000
H312        H  0.50303947  0.20736696  0.19080048     0.08000
H313        H  0.52944103  0.27153881  0.14151580     0.11400
H314        H  0.59207015  0.33385625  0.26458138     0.11700
H315        H  0.55954494  0.27591053  0.31161775     0.08000
C316        C  0.56176503  0.15920155  0.26715296    -0.11100
C317        C  0.58087964  0.12737973  0.29858589    -0.10400
C318        C  0.56728814  0.12667142  0.34650333    -0.01300
C319        C  0.52889925  0.15575461  0.35924179    -0.11500
C320        C  0.51278281  0.19042103  0.32844793    -0.09900
H321        H  0.57660437  0.16102538  0.23219786     0.08000
H322        H  0.60988597  0.10717819  0.28502334     0.11700
H323        H  0.51696242  0.15737974  0.39510670     0.11400
H324        H  0.48906231  0.21695554  0.34148641     0.08000
C325        C  0.65408028  0.22226210  0.42115361    -0.11100
C326        C  0.69165587  0.20727524  0.44888506     0.06000
C327        C  0.69126744  0.16132203  0.46554763    -0.09900
C328        C  0.65564990  0.13001432  0.45124561    -0.11500
C329        C  0.62348807  0.14258121  0.41534347    -0.01300
C330        C  0.62165688  0.19041418  0.40325657    -0.10400
C331        C  0.73611857  0.23460147  0.44560633     0.06000
H332        H  0.72087396  0.14856693  0.48578171     0.08000
H333        H  0.65837431  0.09408797  0.46221978     0.11400
H334        H  0.59926800  0.20388173  0.37613193     0.11700
H335        H  0.65398816  0.25741044  0.40737813     0.08000
C336        C  0.73914282  0.28019965  0.46267370    -0.11100
C337        C  0.77480577  0.31074723  0.44696356    -0.10400
C338        C  0.80235320  0.29928074  0.40737726    -0.01300
C339        C  0.80012549  0.25231094  0.39209938    -0.11500
C340        C  0.76918603  0.22026961  0.41236784    -0.09900
H341        H  0.71112633  0.29384041  0.48427293     0.08000
H342        H  0.77479865  0.34609829  0.45985378     0.11700
H343        H  0.81867503  0.23994016  0.36175419     0.11400
H344        H  0.76653981  0.18587542  0.39716516     0.08000
C345        C  0.65773718  0.01399840  0.30315822    -0.11100
C346        C  0.70572328  0.02751110  0.30276901     0.06000
C347        C  0.71971732  0.06391547  0.33219898    -0.09900
C348        C  0.68672735  0.08783386  0.35891592    -0.11500
C349        C  0.63845233  0.07420619  0.36050937    -0.01300
C350        C  0.62516207  0.03526823  0.33332594    -0.10400
C351        C  0.74009401  0.01144509  0.26664794     0.06000
H352        H  0.75574093  0.07716213  0.33145848     0.08000
H353        H  0.69973083  0.11892560  0.37553124     0.11400
H354        H  0.58830815  0.02444505  0.33195806     0.11700
H355        H  0.64458827  0.98886622  0.27859360     0.08000
C356        C  0.72671422  0.00995210  0.21932478    -0.11100
C357        C  0.76032568  0.02117891  0.18476682    -0.10400
C358        C  0.80518000  0.03856701  0.19863191    -0.01300
C359        C  0.82194831  0.02355948  0.24238964    -0.11500
C360        C  0.78901972  0.01112929  0.27696695    -0.09900
H361        H  0.68972289  0.00745864  0.20945382     0.08000
H362        H  0.74788618  0.02669296  0.14940331     0.11700
H363        H  0.85825895  0.03046682  0.25269734     0.11400
H364        H  0.80100936  0.00837979  0.31279367     0.08000
C365        C  0.68881003  0.84697458  0.74831777    -0.11100
C366        C  0.68027001  0.89281545  0.76189845     0.06000
C367        C  0.64336589  0.91736097  0.74038108    -0.09900
C368        C  0.61849031  0.89774027  0.70261327    -0.11500
C369        C  0.62836194  0.85193412  0.68754427    -0.01300
C370        C  0.66234822  0.82645916  0.71309318    -0.10400
C371        C  0.70970431  0.91209139  0.80003408     0.06000
H372        H  0.63351766  0.95134118  0.75301364     0.08000
H373        H  0.59028244  0.91780364  0.68702227     0.11400
H374        H  0.66903654  0.79029381  0.70509361     0.11700
H375        H  0.71547611  0.82640083  0.76566055     0.08000
C376        C  0.69789103  0.90035720  0.84617546    -0.11100
C377        C  0.73407639  0.89026432  0.87807846    -0.10400
C378        C  0.78168920  0.88848237  0.86224046    -0.01300
C379        C  0.79280377  0.91625980  0.82306392    -0.11500
C380        C  0.75688218  0.92524067  0.79025010    -0.09900
H381        H  0.66155205  0.89173710  0.85531409     0.08000
H382        H  0.72413176  0.87512081  0.91138829     0.11700
H383        H  0.82943173  0.92062414  0.81225445     0.11400
H384        H  0.76697969  0.93583537  0.75526590     0.08000
C385        C  0.64752725  0.73022861  0.57190952    -0.11100
C386        C  0.69604231  0.73293000  0.58347305    -0.05600
C387        C  0.71408913  0.77552260  0.59937854    -0.09900
C388        C  0.68292758  0.81066864  0.61299828    -0.11500
C389        C  0.63339481  0.80230973  0.61346965    -0.01300
C390        C  0.61669147  0.76644709  0.58417524    -0.10400
C391        C  0.72471869  0.69017773  0.58959679     0.06000
H392        H  0.75162141  0.77976851  0.60641689     0.08000
H393        H  0.69793972  0.84158126  0.62862011     0.11400
H394        H  0.57892636  0.76132448  0.57927824     0.11700
H395        H  0.63292810  0.69857530  0.55731007     0.08000
C396        C  0.77305318  0.68856085  0.57773146    -0.11100
C397        C  0.80217789  0.65302472  0.59506684    -0.10400
C398        C  0.78433611  0.61861713  0.62615948    -0.01300
C399        C  0.73495253  0.62045525  0.63613658    -0.11500
C400        C  0.70577260  0.65448787  0.61713153    -0.09900
H401        H  0.78895736  0.71643508  0.55750301     0.08000
H402        H  0.83979445  0.65603099  0.58825536     0.11700
H403        H  0.71853576  0.59969977  0.66302713     0.11400
H404        H  0.66912726  0.65590309  0.62868781     0.08000
C405        C  0.81672394  0.68869982  0.75023329    -0.11100
C406        C  0.86130523  0.70980096  0.74657477     0.06000
C407        C  0.89480053  0.69136425  0.71524130    -0.09900
C408        C  0.88360054  0.65166601  0.68826958    -0.11500
C409        C  0.83794132  0.63110472  0.69108511    -0.01300
C410        C  0.80488551  0.65122765  0.72231057    -0.10400
C411        C  0.86773814  0.75430497  0.77170512     0.06000
H412        H  0.92880878  0.70845339  0.71065862     0.08000
H413        H  0.90977922  0.63867568  0.66393942     0.11400
H414        H  0.76903529  0.63778927  0.72512414     0.11700
H415        H  0.78996353  0.70277133  0.77348747     0.08000
C416        C  0.83750962  0.79040431  0.75903426    -0.11100
C417        C  0.82381420  0.82340627  0.79161774    -0.10400
C418        C  0.84286049  0.82463953  0.83741294    -0.01300
C419        C  0.87851427  0.79147636  0.84759135    -0.11500
C420        C  0.89000237  0.75609658  0.81552280    -0.09900
H421        H  0.81869287  0.78895620  0.72603231     0.08000
H422        H  0.79365484  0.84333913  0.78140083     0.11700
H423        H  0.89336735  0.78954198  0.88239584     0.11400
H424        H  0.91267737  0.72785958  0.82661692     0.08000
C425        C  0.51472742  0.66122823  0.79967350    -0.11100
C426        C  0.53711866  0.70466524  0.79518343     0.06000
C427        C  0.57385042  0.71605462  0.82568529    -0.09900
C428        C  0.59261639  0.68258042  0.85528785    -0.11500
C429        C  0.57331782  0.63701253  0.85773905    -0.01300
C430        C  0.53108765  0.62857845  0.83239515    -0.10400
C431        C  0.53543274  0.73108242  0.75104739     0.06000
H432        H  0.59251519  0.74891638  0.82200174     0.08000
H433        H  0.62499625  0.69238773  0.87241899     0.11400
H434        H  0.51492121  0.59437332  0.83299678     0.11700
H435        H  0.48788497  0.65089026  0.77485276     0.08000
C436        C  0.56099843  0.71273087  0.71364855    -0.11100
C437        C  0.57986055  0.74185462  0.67943760    -0.10400
C438        C  0.56996406  0.79011824  0.67869329    -0.01300
C439        C  0.53850518  0.80694269  0.71337654    -0.11500
C440        C  0.52342472  0.77829927  0.75033511    -0.09900
H441        H  0.57243778  0.67679386  0.71459098     0.08000
H442        H  0.60624019  0.72602840  0.65767364     0.11700
H443        H  0.53031866  0.84363767  0.71496982     0.11400
H444        H  0.50554553  0.79368268  0.78000539     0.08000
C445        C  0.64690829  0.55039255  0.76234759    -0.11100
C446        C  0.68263523  0.52056756  0.77795422     0.06000
C447        C  0.68191918  0.50602607  0.82475570    -0.09900
C448        C  0.64844667  0.52382549  0.85602043    -0.11500
C449        C  0.61882516  0.56128500  0.84264248    -0.01300
C450        C  0.61622690  0.57132576  0.79415523    -0.10400
C451        C  0.72585641  0.51569353  0.74877515     0.06000
H452        H  0.70984066  0.48407555  0.83818038     0.08000
H453        H  0.65278746  0.51457029  0.89234870     0.11400
H454        H  0.59480914  0.59887574  0.78013710     0.11700
H455        H  0.64673697  0.56259302  0.72648355     0.08000
C456        C  0.72259071  0.50826613  0.70030032    -0.11100
C457        C  0.75840040  0.52506346  0.67048231    -0.10400
C458        C  0.79445129  0.55376184  0.68896252    -0.01300
C459        C  0.80389022  0.54916600  0.73724179    -0.11500
C460        C  0.76921635  0.53116237  0.76710347    -0.09900
H461        H  0.69033743  0.49416610  0.68533802     0.08000
H462        H  0.75305741  0.52315374  0.63306941     0.11700
H463        H  0.83505998  0.56491474  0.75270649     0.11400
H464        H  0.77389678  0.53524062  0.80442559     0.08000
C465        C  0.77765145  0.74100629  0.95216993    -0.11100
C466        C  0.73785789  0.72609028  0.92686519     0.06000
C467        C  0.72368679  0.75114736  0.88758004    -0.09900
C468        C  0.74879122  0.79003150  0.87331787    -0.11500
C469        C  0.78704603  0.80792857  0.89964350    -0.01300
C470        C  0.80142662  0.78231669  0.93945732    -0.10400
C471        C  0.71410696  0.68114589  0.93474589     0.06000
H472        H  0.69457324  0.73900043  0.86611709     0.08000
H473        H  0.73836774  0.80606112  0.84083037     0.11400
H474        H  0.83252949  0.79238321  0.95911864     0.11700
H475        H  0.79105372  0.72015675  0.98070301     0.08000
C476        C  0.72570140  0.64562275  0.90380856    -0.11100
C477        C  0.69091998  0.61461411  0.88910992    -0.10400
C478        C  0.64422975  0.61556693  0.90805350    -0.01300
C479        C  0.63645487  0.64533738  0.94655427    -0.11500
C480        C  0.67006978  0.67966841  0.95770546    -0.09900
H481        H  0.75906714  0.64688409  0.88483770     0.08000
H482        H  0.70023721  0.59466718  0.85870338     0.11700
H483        H  0.60154015  0.64767152  0.96223883     0.11400
H484        H  0.65969843  0.70789095  0.98043327     0.08000
C485        C  0.69444620  0.64653118  0.05746584    -0.11100
C486        C  0.69856370  0.69377362  0.06939202     0.06000
C487        C  0.66440462  0.71319131  0.09859314    -0.09900
C488        C  0.63274724  0.68489602  0.12253479    -0.11500
C489        C  0.62986601  0.63640074  0.11407229    -0.01300
C490        C  0.65851334  0.61878651  0.07745521    -0.10400
C491        C  0.74443108  0.71878894  0.06704334     0.06000
H492        H  0.66737898  0.74918202  0.10938315     0.08000
H493        H  0.61541249  0.70181695  0.15124190     0.11400
H494        H  0.65822957  0.58204225  0.06957845     0.11700
H495        H  0.72104489  0.63045718  0.03547813     0.08000
C496        C  0.78123527  0.69997001  0.09324817    -0.11100
C497        C  0.81337149  0.72891266  0.11588111    -0.10400
C498        C  0.81365546  0.77795323  0.10921980    -0.01300
C499        C  0.78057146  0.79530900  0.07622757    -0.11500
C500        C  0.74587013  0.76641145  0.05640234    -0.09900
H501        H  0.77996510  0.66366686  0.10351586     0.08000
H502        H  0.83160104  0.71148915  0.14342782     0.11700
H503        H  0.77656033  0.83220312  0.07075261     0.11400
H504        H  0.71713489  0.78203021  0.03685041     0.08000
C505        C  0.70780959  0.55912854  0.33014010    -0.11100
C506        C  0.73003999  0.54059702  0.29070932     0.06000
C507        C  0.77883015  0.53196840  0.29228309    -0.09900
C508        C  0.80525271  0.54377647  0.33172423    -0.11500
C509        C  0.78468075  0.56934333  0.36890325    -0.01300
C510        C  0.73464644  0.57471784  0.36787327    -0.10400
C511        C  0.70442283  0.54147735  0.24570221     0.06000
H512        H  0.79722619  0.51933778  0.26161701     0.08000
H513        H  0.84328475  0.53949942  0.32932676     0.11400
H514        H  0.71540018  0.59570485  0.39221347     0.11700
H515        H  0.67031138  0.56741083  0.32927356     0.08000
C516        C  0.65788963  0.52452318  0.24232168    -0.11100
C517        C  0.62908515  0.53638389  0.20437907    -0.10400
C518        C  0.64355658  0.57222985  0.17361206    -0.01300
C519        C  0.69198412  0.58608042  0.17516548    -0.11500
C520        C  0.72226608  0.56946364  0.20971268    -0.09900
H521        H  0.64212070  0.50660498  0.27164690     0.08000
H522        H  0.59241932  0.52489222  0.20486326     0.11700
H523        H  0.70626664  0.61341165  0.15340590     0.11400
H524        H  0.75780611  0.58387533  0.21187881     0.08000
C525        C  0.82673298  0.69394860  0.30332208    -0.11100
C526        C  0.87416875  0.69245920  0.28889363     0.06000
C527        C  0.90404488  0.65838129  0.30778017    -0.09900
C528        C  0.88809470  0.62983270  0.34473111    -0.11500
C529        C  0.84062496  0.63272341  0.36069306    -0.01300
C530        C  0.81001379  0.66389759  0.33746493    -0.10400
C531        C  0.89022271  0.72827605  0.25511443     0.06000
H532        H  0.93946150  0.65411932  0.29420753     0.08000
H533        H  0.91251104  0.60496524  0.35952406     0.11400
H534        H  0.77282286  0.66592936  0.34699329     0.11700
H535        H  0.80232880  0.71868140  0.28798284     0.08000
C536        C  0.90367702  0.71700709  0.20928989    -0.11100
C537        C  0.89822924  0.75013274  0.17326982    -0.10400
C538        C  0.87053037  0.78996665  0.18197027    -0.01300
C539        C  0.87005754  0.80543172  0.22890690    -0.11500
C540        C  0.87956607  0.77462480  0.26517146    -0.09900
H541        H  0.91436819  0.68194477  0.20069805     0.08000
H542        H  0.90678031  0.74027316  0.13774379     0.11700
H543        H  0.85716510  0.83936008  0.23839581     0.11400
H544        H  0.87196364  0.78518291  0.30072905     0.08000
C545        C  0.52674317  0.69717750  0.20460201    -0.11100
C546        C  0.53945590  0.69534471  0.25172365     0.06000
C547        C  0.56808282  0.65904070  0.26716475    -0.09900
C548        C  0.58780882  0.62825575  0.23538820    -0.11500
C549        C  0.57650826  0.62986288  0.18700873    -0.01300
C550        C  0.54249007  0.66339905  0.17339329    -0.10400
C551        C  0.53503483  0.73646987  0.28191712     0.06000
H552        H  0.58034830  0.65796049  0.30303780     0.08000
H553        H  0.61501035  0.60666991  0.24983446     0.11400
H554        H  0.53553377  0.66999735  0.13694412     0.11700
H555        H  0.50843755  0.72720064  0.19093405     0.08000
C556        C  0.55416779  0.77842073  0.26612172    -0.11100
C557        C  0.57027469  0.81130214  0.29792008    -0.10400
C558        C  0.56639743  0.80399235  0.34685493    -0.01300
C559        C  0.53706377  0.76618898  0.36105942    -0.11500
C560        C  0.52442966  0.73149393  0.32938705    -0.09900
H561        H  0.56255485  0.78337054  0.22945492     0.08000
H562        H  0.58850341  0.83985009  0.28211041     0.11700
H563        H  0.53254295  0.75783121  0.39763544     0.11400
H564        H  0.51090263  0.69872433  0.34263013     0.08000
C565        C  0.76618844  0.89528960  0.22445115    -0.11100
C566        C  0.73339453  0.86434174  0.24433057     0.06000
C567        C  0.72942611  0.81957719  0.22594965    -0.09900
C568        C  0.76031767  0.80465843  0.19117627    -0.11500
C569        C  0.79519236  0.83468719  0.17181550    -0.01300
C570        C  0.79575483  0.88132479  0.18753335    -0.10400
C571        C  0.70859736  0.87405754  0.28882494     0.06000
H572        H  0.70475293  0.79480065  0.24125440     0.08000
H573        H  0.75875635  0.76832241  0.18188414     0.11400
H574        H  0.82245947  0.90564426  0.17539143     0.11700
H575        H  0.77153648  0.92884741  0.23970092     0.08000
C576        C  0.72238146  0.84875243  0.32802962    -0.11100
C577        C  0.68960125  0.83890215  0.36309917    -0.10400
C578        C  0.64189288  0.85491757  0.36023178    -0.01300
C579        C  0.63374891  0.89141930  0.32816353    -0.11500
C580        C  0.66518769  0.89763007  0.29009835    -0.09900
H581        H  0.75640247  0.83125054  0.32849474     0.08000
H582        H  0.70159684  0.81442236  0.38894159     0.11700
H583        H  0.59908662  0.90750005  0.32654650     0.11400
H584        H  0.65334158  0.91605412  0.25932695     0.08000
C585        C  0.67869942  0.76947082  0.47642373    -0.11100
C586        C  0.68564884  0.72495201  0.45763500     0.06000
C587        C  0.66063358  0.71247511  0.41758281    -0.09900
C588        C  0.63201718  0.74454801  0.39507893    -0.11500
C589        C  0.62186947  0.78872064  0.41481293    -0.01300
C590        C  0.64485549  0.79973535  0.45727640    -0.10400
C591        C  0.72664009  0.69554408  0.47008336     0.06000
H592        H  0.66788981  0.67977324  0.40027296     0.08000
H593        H  0.62117573  0.73529099  0.36014801     0.11400
H594        H  0.64149708  0.83404035  0.47223017     0.11700
H595        H  0.70111278  0.78189548  0.50428380     0.08000
C596        C  0.77166571  0.71140493  0.45677496    -0.11100
C597        C  0.80507029  0.67978581  0.44028717    -0.10400
C598        C  0.79277102  0.63226464  0.43530942    -0.01300
C599        C  0.75505256  0.61600051  0.46343729    -0.11500
C600        C  0.72023733  0.64760854  0.47818280    -0.09900
H601        H  0.77850385  0.74823195  0.45236796     0.08000
H602        H  0.83783936  0.69351853  0.42592171     0.11700
H603        H  0.74782658  0.57909721  0.46620996     0.11400
H604        H  0.68632161  0.63448252  0.49044129     0.08000
C605        C  0.01405771  0.65745976  0.73898944    -0.11100
C606        C  0.04334205  0.69073312  0.76041873     0.06000
C607        C  0.09003261  0.69642779  0.74490443    -0.09900
C608        C  0.10797334  0.66859825  0.70976353    -0.11500
C609        C  0.07929800  0.63526072  0.68692020    -0.01300
C610        C  0.03154746  0.63048820  0.70170142    -0.10400
C611        C  0.02948744  0.71741206  0.80214569     0.06000
H612        H  0.11342029  0.72140494  0.76153659     0.08000
H613        H  0.14502234  0.67286699  0.70034870     0.11400
H614        H  0.00838177  0.60478200  0.68617584     0.11700
H615        H  0.97841017  0.65153092  0.75187828     0.08000
C616        C  0.01623933  0.76388848  0.79681744    -0.11100
C617        C  0.02883861  0.79675601  0.83068745    -0.10400
C618        C  0.05624543  0.78428191  0.87036807    -0.01300
C619        C  0.06274360  0.73589003  0.87788529    -0.11500
C620        C  0.04874783  0.70317797  0.84469791    -0.09900
H621        H  0.00224048  0.77588089  0.76369833     0.08000
H622        H  0.02452502  0.83276837  0.82110188     0.11700
H623        H  0.08431687  0.72189764  0.90520809     0.11400
H624        H  0.06011539  0.66747965  0.84909023     0.08000
C625        C  0.27840874  0.71462342  0.57615804    -0.11100
C626        C  0.23256708  0.72884319  0.56316691     0.06000
C627        C  0.22541371  0.77671422  0.55546226    -0.09900
C628        C  0.25997898  0.80931856  0.56874915    -0.11500
C629        C  0.29768921  0.79426526  0.59706786    -0.01300
C630        C  0.31125099  0.74735748  0.59226147    -0.10400
C631        C  0.19144798  0.69603089  0.56847102     0.06000
H632        H  0.19141012  0.78944823  0.54374706     0.08000
H633        H  0.25117889  0.84588441  0.56690561     0.11400
H634        H  0.34381425  0.73479716  0.60773756     0.11700
H635        H  0.28701214  0.67829704  0.58047021     0.08000
C636        C  0.19709518  0.64744220  0.56473615    -0.11100
C637        C  0.16258523  0.61693013  0.58242783    -0.10400
C638        C  0.12707595  0.63440620  0.61203106    -0.01300
C639        C  0.11565177  0.68191305  0.60660362    -0.11500
C640        C  0.14778649  0.71246894  0.58557094    -0.09900
H641        H  0.22933221  0.63262660  0.55077202     0.08000
H642        H  0.16919778  0.57990488  0.58102867     0.11700
H643        H  0.08422289  0.69657235  0.62250934     0.11400
H644        H  0.14030136  0.74920437  0.58786020     0.08000
C645        C  0.14715612  0.89882907  0.79574496    -0.11100
C646        C  0.17805089  0.86614279  0.77599577     0.06000
C647        C  0.17852937  0.82077859  0.79344202    -0.09900
C648        C  0.14853047  0.80783029  0.82947346    -0.11500
C649        C  0.11871329  0.84041689  0.85172176    -0.01300
C650        C  0.11834983  0.88644639  0.83419493    -0.10400
C651        C  0.20597044  0.87487222  0.73328956     0.06000
H652        H  0.20133038  0.79471151  0.77793632     0.08000
H653        H  0.14959348  0.77203303  0.84124492     0.11400
H654        H  0.09550907  0.91255777  0.84923252     0.11700
H655        H  0.14470539  0.93334498  0.78086391     0.08000
C656        C  0.19272778  0.84924552  0.69422272    -0.11100
C657        C  0.22672156  0.83475790  0.66245680    -0.10400
C658        C  0.27458202  0.85008129  0.66483757    -0.01300
C659        C  0.28589214  0.88161642  0.70114627    -0.11500
C660        C  0.25230767  0.89278093  0.73578497    -0.09900
H661        H  0.15767471  0.83354326  0.69269425     0.08000
H662        H  0.21532820  0.80657935  0.64075026     0.11700
H663        H  0.32219035  0.89324117  0.70577054     0.11400
H664        H  0.26370121  0.91155712  0.76656315     0.08000
C665        C  0.21693356  0.60765581  0.82214488    -0.11100
C666        C  0.22793387  0.56637304  0.79912842     0.06000
C667        C  0.26913794  0.54243017  0.81089004    -0.09900
C668        C  0.29769486  0.55770284  0.84748667    -0.11500
C669        C  0.28624839  0.59858208  0.87226569    -0.01300
C670        C  0.24676300  0.62455759  0.85666254    -0.10400
C671        C  0.20204801  0.55576600  0.75630725     0.06000
H672        H  0.28046323  0.51347352  0.79016859     0.08000
H673        H  0.33011431  0.53885974  0.85412286     0.11400
H674        H  0.23879239  0.65828437  0.87125400     0.11700
H675        H  0.18688071  0.62840972  0.81117763     0.08000
C676        C  0.15433171  0.54263251  0.75848584    -0.11100
C677        C  0.12431385  0.55198807  0.72090937    -0.10400
C678        C  0.14092327  0.57659018  0.68102802    -0.01300
C679        C  0.19056133  0.58512896  0.67839307    -0.11500
C680        C  0.22062816  0.57354404  0.71488768    -0.09900
H681        H  0.13928809  0.52981715  0.79095992     0.08000
H682        H  0.08675064  0.54668859  0.72661055     0.11700
H683        H  0.20711279  0.60623914  0.65210977     0.11400
H684        H  0.25734302  0.58500654  0.71336879     0.08000
C685        C  0.27329922  0.71323062  0.98888758    -0.11100
C686        C  0.22432585  0.70582654  0.98133559     0.06000
C687        C  0.20918383  0.66062914  0.97036319    -0.09900
C688        C  0.24237794  0.62682523  0.95801424    -0.11500
C689        C  0.29033374  0.63970704  0.95115462    -0.01300
C690        C  0.30633038  0.67916734  0.97572357    -0.10400
C691        C  0.19080531  0.74536671  0.97494787     0.06000
H692        H  0.17182582  0.65258184  0.96645312     0.08000
H693        H  0.22923818  0.59372172  0.94551876     0.11400
H694        H  0.34372101  0.68808824  0.97589561     0.11700
H695        H  0.28631187  0.74683997  0.00007594     0.08000
C696        C  0.20602372  0.78507256  0.95063771    -0.11100
C697        C  0.17289528  0.81443348  0.92998786    -0.10400
C698        C  0.12382312  0.80323823  0.93106135    -0.01300
C699        C  0.10911396  0.77244198  0.96666569    -0.11500
C700        C  0.14214864  0.74152047  0.98621910    -0.09900
H701        H  0.24329415  0.79104533  0.94334931     0.08000
H702        H  0.18643379  0.84309545  0.90927396     0.11700
H703        H  0.07165111  0.76695584  0.97342784     0.11400
H704        H  0.12942236  0.71307181  0.00775217     0.08000
C705        C  0.34029521  0.73257942  0.83992983    -0.11100
C706        C  0.36804956  0.71637264  0.80307586     0.06000
C707        C  0.38854080  0.67219892  0.80678985    -0.09900
C708        C  0.37939321  0.64381202  0.84597073    -0.11500
C709        C  0.34665260  0.65758351  0.88089902    -0.01300
C710        C  0.32822786  0.70331836  0.87692318    -0.10400
C711        C  0.36161092  0.73900886  0.75707378     0.06000
H712        H  0.40760162  0.65790428  0.77737035     0.08000
H713        H  0.39302785  0.60869997  0.84578177     0.11400
H714        H  0.29950037  0.71553093  0.89834975     0.11700
H715        H  0.32233103  0.76570042  0.83682261     0.08000
C716        C  0.31890886  0.73053795  0.73394283    -0.11100
C717        C  0.30600632  0.75718194  0.69560374    -0.10400
C718        C  0.33598949  0.79258630  0.67753745    -0.01300
C719        C  0.38007132  0.79987367  0.69993375    -0.11500
C720        C  0.39237740  0.77362755  0.73981921    -0.09900
H721        H  0.29412058  0.70475996  0.74727736     0.08000
H722        H  0.27142773  0.75072444  0.68047043     0.11700
H723        H  0.40377263  0.82735656  0.68860174     0.11400
H724        H  0.42465109  0.78170284  0.75841369     0.08000
C725        C  0.79351758  0.08212730  0.77148815    -0.11100
C726        C  0.75646004  0.05107047  0.78054153     0.06000
C727        C  0.75523261  0.02823228  0.82390634    -0.09900
C728        C  0.78670805  0.04162551  0.85953944    -0.11500
C729        C  0.81338394  0.08326789  0.85449397    -0.01300
C730        C  0.81926319  0.10042161  0.80834328    -0.10400
C731        C  0.71268465  0.05835878  0.75324930     0.06000
H732        H  0.72628465  0.00485683  0.83239332     0.08000
H733        H  0.78227681  0.02596951  0.89373273     0.11400
H734        H  0.83852537  0.13146673  0.79978399     0.11700
H735        H  0.79567533  0.09954029  0.73787450     0.08000
C736        C  0.69482858  0.10350167  0.75196895    -0.11100
C737        C  0.65825209  0.11485614  0.72219857    -0.10400
C738        C  0.63530685  0.08108542  0.69418515    -0.01300
C739        C  0.65076151  0.03461476  0.69864499    -0.11500
C740        C  0.69050553  0.02380419  0.72660280    -0.09900
H741        H  0.71071341  0.13082949  0.77284537     0.08000
H742        H  0.64728886  0.15085344  0.72141503     0.11700
H743        H  0.63313380  0.00659785  0.68098345     0.11400
H744        H  0.70459691  0.98900187  0.72667957     0.08000
C745        C  0.78506931  0.20855536  0.60208525    -0.11100
C746        C  0.74099353  0.22239024  0.58429162     0.06000
C747        C  0.73514585  0.26934748  0.57196457    -0.09900
C748        C  0.76953729  0.30253778  0.58376661    -0.11500
C749        C  0.80543498  0.29003085  0.61535188    -0.01300
C750        C  0.81749937  0.24226300  0.61712503    -0.10400
C751        C  0.69858087  0.19224385  0.59156323     0.06000
H752        H  0.70135103  0.28121657  0.55879774     0.08000
H753        H  0.76217773  0.33884741  0.57697387     0.11400
H754        H  0.84899680  0.23062409  0.63523025     0.11700
H755        H  0.79176359  0.17246805  0.61050889     0.08000
C756        C  0.69918125  0.14413768  0.58357334    -0.11100
C757        C  0.66233822  0.11559648  0.60055343    -0.10400
C758        C  0.62534992  0.13376607  0.62877760    -0.01300
C759        C  0.62515441  0.18258722  0.63507584    -0.11500
C760        C  0.65999077  0.21103506  0.61570820    -0.09900
H761        H  0.72925281  0.12828131  0.56632744     0.08000
H762        H  0.66573100  0.07848626  0.59591505     0.11700
H763        H  0.60241628  0.19986877  0.65945488     0.11400
H764        H  0.65941132  0.24761973  0.62457418     0.08000
C765        C  0.90934521  0.18822879  0.82367741    -0.11100
C766        C  0.88275018  0.22927122  0.82119206     0.06000
C767        C  0.84986872  0.23794412  0.85662151    -0.09900
C768        C  0.83457435  0.20193550  0.88548069    -0.11500
C769        C  0.85545761  0.15705208  0.88357791    -0.01300
C770        C  0.89804710  0.15370100  0.85712091    -0.10400
C771        C  0.87385843  0.25240436  0.77566731     0.06000
H772        H  0.82917086  0.26964940  0.85584121     0.08000
H773        H  0.80234207  0.20934727  0.90395554     0.11400
H774        H  0.91638107  0.12089767  0.85451179     0.11700
H775        H  0.93397164  0.17993507  0.79588802     0.08000
C776        C  0.90706115  0.28047023  0.75179854    -0.11100
C777        C  0.89413305  0.30347351  0.70994130    -0.10400
C778        C  0.84731127  0.29951778  0.69249195    -0.01300
C779        C  0.81505633  0.27091557  0.71730697    -0.11500
C780        C  0.82829291  0.24722840  0.75713224    -0.09900
H781        H  0.94218636  0.28550766  0.76616670     0.08000
H782        H  0.92012225  0.32520380  0.69246346     0.11700
H783        H  0.77878747  0.26672154  0.70549379     0.11400
H784        H  0.80207364  0.22546749  0.77446181     0.08000
C785        C  0.56262226  0.27166829  0.76265561    -0.11100
C786        C  0.53259383  0.23716072  0.78042421     0.06000
C787        C  0.51831758  0.23999263  0.82738049    -0.09900
C788        C  0.53455455  0.27633845  0.85603125    -0.11500
C789        C  0.56768710  0.30974710  0.83937466    -0.01300
C790        C  0.58110591  0.30594778  0.79165294    -0.10400
C791        C  0.52626430  0.19424572  0.75230871     0.06000
H792        H  0.49680299  0.21264076  0.84265494     0.08000
H793        H  0.52498544  0.27510025  0.89260463     0.11400
H794        H  0.60996449  0.32546832  0.77662559     0.11700
H795        H  0.57635421  0.26910137  0.72733567     0.08000
C796        C  0.51593221  0.19672896  0.70423500    -0.11100
C797        C  0.52906873  0.16030554  0.67433804    -0.10400
C798        C  0.55771592  0.12410840  0.69179848    -0.01300
C799        C  0.55490928  0.11593303  0.74063818    -0.11500
C800        C  0.54093297  0.15151846  0.77074268    -0.09900
H801        H  0.50213191  0.22852739  0.68928944     0.08000
H802        H  0.52546061  0.16550867  0.63703540     0.11700
H803        H  0.57001661  0.08500085  0.75612500     0.11400
H804        H  0.54699452  0.14745334  0.80788702     0.08000
C805        C  0.64427034  0.24833899  0.96517481    -0.11100
C806        C  0.67954318  0.22656504  0.93841810     0.06000
C807        C  0.68846079  0.24254009  0.89301634    -0.09900
C808        C  0.66131236  0.27747348  0.87371616    -0.11500
C809        C  0.62720027  0.30158841  0.90038669    -0.01300
C810        C  0.61937133  0.28666631  0.94697212    -0.10400
C811        C  0.70369259  0.18313919  0.95225364     0.06000
H812        H  0.71485463  0.22580971  0.87121373     0.08000
H813        H  0.66750931  0.28621028  0.83737250     0.11400
H814        H  0.59255734  0.30252926  0.96864971     0.11700
H815        H  0.63439059  0.23465853  0.99889604     0.08000
C816        C  0.74623868  0.18475066  0.97773763    -0.11100
C817        C  0.78370679  0.15427431  0.96649852    -0.10400
C818        C  0.78081398  0.12652418  0.92566198    -0.01300
C819        C  0.73472903  0.12027949  0.90654648    -0.11500
C820        C  0.69621911  0.14574906  0.92228991    -0.09900
H821        H  0.75296786  0.21349400  0.00110236     0.08000
H822        H  0.81766958  0.15933812  0.98345023     0.11700
H823        H  0.72763485  0.10082296  0.87546381     0.11400
H824        H  0.66329895  0.14335389  0.90281048     0.08000
C825        C  0.71229067  0.39009780  0.82541548    -0.11100
C826        C  0.69536434  0.40430195  0.78163600     0.06000
C827        C  0.64670043  0.41426610  0.77693947    -0.09900
C828        C  0.61487119  0.40188271  0.81260763    -0.11500
C829        C  0.63123101  0.37434673  0.85001261    -0.01300
C830        C  0.68026701  0.37683965  0.86018749    -0.10400
C831        C  0.72584275  0.39792115  0.73998487     0.06000
H832        H  0.63296696  0.42756892  0.74424100     0.08000
H833        H  0.57715341  0.40547877  0.80636925     0.11400
H834        H  0.69442337  0.36275172  0.89233967     0.11700
H835        H  0.74979053  0.38423254  0.83110605     0.08000
C836        C  0.77411844  0.40981170  0.74044923    -0.11100
C837        C  0.80517785  0.39139909  0.70715619    -0.10400
C838        C  0.78943690  0.35871936  0.67343472    -0.01300
C839        C  0.73994495  0.34939814  0.67240875    -0.11500
C840        C  0.70881528  0.36979256  0.70399844    -0.09900
H841        H  0.78843043  0.43077021  0.76849835     0.08000
H842        H  0.84256464  0.39833561  0.71197634     0.11700
H843        H  0.72438692  0.32215054  0.65200670     0.11400
H844        H  0.67202531  0.35858944  0.70378636     0.08000
C845        C  0.14985063  0.72848218  0.41691068    -0.11100
C846        C  0.18837536  0.71450420  0.44376749     0.06000
C847        C  0.18978065  0.66858107  0.46004453    -0.09900
C848        C  0.15376793  0.63683212  0.44880021    -0.11500
C849        C  0.12165955  0.64769182  0.41267787    -0.01300
C850        C  0.11828040  0.69540273  0.39981896    -0.10400
C851        C  0.23212362  0.74268875  0.44120710     0.06000
H852        H  0.22141224  0.65611624  0.47703350     0.08000
H853        H  0.15723162  0.60123665  0.46068221     0.11400
H854        H  0.09497013  0.70810757  0.37319473     0.11700
H855        H  0.14834608  0.76353604  0.40302098     0.08000
C856        C  0.27024729  0.72408637  0.41659955    -0.11100
C857        C  0.30447889  0.75319057  0.39743036    -0.10400
C858        C  0.30493382  0.80167617  0.40656016    -0.01300
C859        C  0.27114315  0.81829459  0.43908247    -0.11500
C860        C  0.23260906  0.79018505  0.45208359    -0.09900
H861        H  0.26989535  0.68787844  0.40620826     0.08000
H862        H  0.32650179  0.73685008  0.37171197     0.11700
H863        H  0.26922363  0.85497848  0.44695742     0.11400
H864        H  0.20188137  0.80625888  0.46781245     0.08000
C865        C  0.07325059  0.77589716  0.26951553    -0.11100
C866        C  0.03853902  0.74399458  0.25569436     0.06000
C867        C  0.01836125  0.74864848  0.21121330    -0.09900
C868        C  0.03455850  0.78308292  0.18008800    -0.11500
C869        C  0.07556952  0.80959548  0.19073953    -0.01300
C870        C  0.09258439  0.80713018  0.23733197    -0.10400
C871        C  0.03744804  0.69903396  0.28072433     0.06000
H872        H  0.99445772  0.72228636  0.19844545     0.08000
H873        H  0.02051697  0.78319163  0.14489399     0.11400
H874        H  0.12399607  0.82545556  0.24856530     0.11700
H875        H  0.09027438  0.77219192  0.30326258     0.08000
C876        C  0.07068506  0.66607367  0.26665786    -0.11100
C877        C  0.08688866  0.63277361  0.29797749    -0.10400
C878        C  0.06806331  0.62924639  0.34391053    -0.01300
C879        C  0.02785644  0.65689953  0.35430269    -0.11500
C880        C  0.01490600  0.69355918  0.32420426    -0.09900
H881        H  0.08904431  0.67010843  0.23352418     0.08000
H882        H  0.11785750  0.61386265  0.28684059     0.11700
H883        H  0.01208097  0.65563062  0.38881508     0.11400
H884        H  0.98955756  0.71918666  0.33605248     0.08000
C885        C  0.22537830  0.87508772  0.20257210    -0.11100
C886        C  0.20881359  0.90707080  0.23517613     0.06000
C887        C  0.16131971  0.92155997  0.23251979    -0.09900
C888        C  0.13043796  0.90208800  0.19943019    -0.11500
C889        C  0.14478362  0.86352794  0.17229476    -0.01300
C890        C  0.19361790  0.85157218  0.17404055    -0.10400
C891        C  0.23406289  0.90700490  0.28019050     0.06000
H892        H  0.14710742  0.94482542  0.25868366     0.08000
H893        H  0.09353937  0.91238978  0.20022794     0.11400
H894        H  0.20787583  0.82079192  0.15833831     0.11700
H895        H  0.26130415  0.86189362  0.20522768     0.08000
C896        C  0.21678517  0.87512440  0.31280052    -0.11100
C897        C  0.24741623  0.85358076  0.34366413    -0.10400
C898        C  0.29580416  0.86695957  0.34731551    -0.01300
C899        C  0.31106117  0.90471049  0.31908039    -0.11500
C900        C  0.28115217  0.92291472  0.28423596    -0.09900
H901        H  0.18115371  0.86111878  0.30938423     0.08000
H902        H  0.23282222  0.82343410  0.36087413     0.11700
H903        H  0.34776515  0.91599433  0.32010044     0.11400
H904        H  0.29564968  0.94671917  0.25847473     0.08000
C905        C  0.41515260  0.68843544  0.21339773    -0.11100
C906        C  0.40086072  0.69077029  0.26022529     0.06000
C907        C  0.37609497  0.65302745  0.27933931    -0.09900
C908        C  0.35875964  0.61783640  0.25035996    -0.11500
C909        C  0.36798671  0.61808617  0.20147404    -0.01300
C910        C  0.40212039  0.65071452  0.18530104    -0.10400
C911        C  0.39931010  0.73603081  0.28487713     0.06000
H912        H  0.36422455  0.65403179  0.31538288     0.08000
H913        H  0.33394165  0.59433973  0.26661350     0.11400
H914        H  0.41053047  0.65326448  0.14851187     0.11700
H915        H  0.43128840  0.71840906  0.19700185     0.08000
C916        C  0.41363163  0.74042770  0.33150654    -0.11100
C917        C  0.40014700  0.77911422  0.35807184    -0.10400
C918        C  0.36579499  0.81062832  0.34064771    -0.01300
C919        C  0.35611948  0.80836469  0.29204328    -0.11500
C920        C  0.37349448  0.77221710  0.26461352    -0.09900
H921        H  0.43133395  0.71192225  0.34875892     0.08000
H922        H  0.40885352  0.77831169  0.39479287     0.11700
H923        H  0.33117743  0.83102444  0.27503263     0.11400
H924        H  0.36157543  0.76961479  0.22872850     0.08000
C925        C  0.27511340  0.51168012  0.25438416    -0.11100
C926        C  0.22888310  0.52967637  0.25678979     0.06000
C927        C  0.21392457  0.56058195  0.22233908    -0.09900
C928        C  0.24634877  0.57948649  0.19109350    -0.11500
C929        C  0.29463232  0.56550669  0.19072851    -0.01300
C930        C  0.30685199  0.52744980  0.21968789    -0.10400
C931        C  0.20171022  0.53086240  0.30082499     0.06000
H932        H  0.17864940  0.57549047  0.22392863     0.08000
H933        H  0.23307854  0.60816422  0.17085165     0.11400
H934        H  0.34301324  0.51482183  0.22007989     0.11700
H935        H  0.28761676  0.48812669  0.28119067     0.08000
C936        C  0.21785460  0.56210635  0.33445369    -0.11100
C937        C  0.18577083  0.58510474  0.36321445    -0.10400
C938        C  0.13644302  0.57460216  0.36258156    -0.01300
C939        C  0.12215022  0.53725385  0.33340854    -0.11500
C940        C  0.15393717  0.51709252  0.30172428    -0.09900
H941        H  0.25426633  0.57449189  0.33328539     0.08000
H942        H  0.20048994  0.61444725  0.38123806     0.11700
H943        H  0.08505480  0.52851951  0.32939042     0.11400
H944        H  0.14029092  0.49419056  0.27490002     0.08000
C945        C  0.20059371  0.76904282  0.07740285    -0.11100
C946        C  0.19795559  0.72354845  0.09457770     0.06000
C947        C  0.15820474  0.71006574  0.12036466    -0.09900
C948        C  0.12546573  0.74316565  0.13491340    -0.11500
C949        C  0.13013615  0.79078583  0.12201953    -0.01300
C950        C  0.16508518  0.80121496  0.08787178    -0.10400
C951        C  0.24122969  0.69555215  0.09952580     0.06000
H952        H  0.15593844  0.67524811  0.13481039     0.08000
H953        H  0.10012999  0.73069804  0.16008503     0.11400
H954        H  0.17212155  0.83655144  0.07753010     0.11700
H955        H  0.23205518  0.78081725  0.05899808     0.08000
C956        C  0.24459297  0.65033166  0.08176615    -0.11100
C957        C  0.28054478  0.62044633  0.09711462    -0.10400
C958        C  0.30965001  0.63300041  0.13539321    -0.01300
C959        C  0.30605555  0.67943940  0.15169851    -0.11500
C960        C  0.27421950  0.71058954  0.13236457    -0.09900
H961        H  0.21747656  0.63696656  0.05877788     0.08000
H962        H  0.28041598  0.58519456  0.08415283     0.11700
H963        H  0.32365893  0.69160394  0.18269407     0.11400
H964        H  0.27106264  0.74481414  0.14782366     0.08000
C965        C  0.21417902  0.40986771  0.69659156    -0.11100
C966        C  0.19839176  0.41737941  0.74268157     0.06000
C967        C  0.14913832  0.41915714  0.75034153    -0.09900
C968        C  0.11827356  0.39962137  0.71769534    -0.11500
C969        C  0.13655122  0.37826792  0.67702952    -0.01300
C970        C  0.18223415  0.39296918  0.66280056    -0.10400
C971        C  0.23050192  0.40839335  0.78322021     0.06000
H972        H  0.13517153  0.42873740  0.78426085     0.08000
H973        H  0.08139862  0.39505814  0.72755776     0.11400
H974        H  0.19570783  0.38391422  0.62856682     0.11700
H975        H  0.25166140  0.41107937  0.68819302     0.08000
C976        C  0.27830275  0.42258159  0.78436629    -0.11100
C977        C  0.30897821  0.40618883  0.81958517    -0.10400
C978        C  0.29519422  0.36856364  0.84850052    -0.01300
C979        C  0.24578304  0.35886772  0.85035303    -0.11500
C980        C  0.21433879  0.37858978  0.81874441    -0.09900
H981        H  0.29238628  0.44492537  0.75717507     0.08000
H982        H  0.34529326  0.41871502  0.82018689     0.11700
H983        H  0.23035100  0.33402607  0.87428404     0.11400
H984        H  0.17781811  0.36668505  0.81974483     0.08000
C985        C  0.24995312  0.27522561  0.96412403    -0.11100
C986        C  0.23644549  0.23531027  0.93935888     0.06000
C987        C  0.25692549  0.22697969  0.89572438    -0.09900
C988        C  0.28834361  0.25883747  0.87606361    -0.11500
C989        C  0.30449255  0.29836733  0.90104349    -0.01300
C990        C  0.28488205  0.30551340  0.94609099    -0.10400
C991        C  0.19321593  0.20840440  0.95092160     0.06000
H992        H  0.24493867  0.19794579  0.87470710     0.08000
H993        H  0.29799011  0.25351070  0.83985697     0.11400
H994        H  0.29321148  0.33649836  0.96573443     0.11700
H995        H  0.23164065  0.28435535  0.99602314     0.08000
C996        C  0.19604426  0.16147296  0.96389281    -0.11100
C997        C  0.15913212  0.13051616  0.95245027    -0.10400
C998        C  0.12110379  0.14503970  0.92342815    -0.01300
C999        C  0.11560617  0.19386572  0.91818682    -0.11500
C1000       C  0.15073627  0.22484650  0.93253546    -0.09900
H1001       H  0.22865646  0.14791550  0.97843044     0.08000
H1002       H  0.16479166  0.09390844  0.95906614     0.11700
H1003       H  0.08796516  0.20992982  0.89863119     0.11400
H1004       H  0.14771043  0.26107897  0.92248426     0.08000
C1005       C  0.06426954  0.15705342  0.76885002    -0.11100
C1006       C  0.04046974  0.19716565  0.78290271     0.06000
C1007       C  0.02120791  0.19875275  0.82814764    -0.09900
C1008       C  0.03111235  0.16309267  0.86035334    -0.11500
C1009       C  0.06742323  0.13107133  0.85002888    -0.01300
C1010       C  0.07721356  0.12388749  0.80193793    -0.10400
C1011       C  0.04974419  0.24007584  0.75603669     0.06000
H1012       H  0.00197597  0.22916526  0.83967656     0.08000
H1013       H  0.01805024  0.16633077  0.89583151     0.11400
H1014       H  0.09890184  0.09541154  0.78988586     0.11700
H1015       H  0.07817656  0.15426942  0.73362017     0.08000
C1016       C  0.09319112  0.26238865  0.76363045    -0.11100
C1017       C  0.11013502  0.29530147  0.73205802    -0.10400
C1018       C  0.08308997  0.30919977  0.69285823    -0.01300
C1019       C  0.03779912  0.28849616  0.68705740    -0.11500
C1020       C  0.02190225  0.25339657  0.71774732    -0.09900
H1021       H  0.11590236  0.25152366  0.79215912     0.08000
H1022       H  0.14583980  0.30837858  0.73719500     0.11700
H1023       H  0.01625758  0.29658340  0.65689581     0.11400
H1024       H  0.98911361  0.23511853  0.71032480     0.08000
C1025       C  0.35623858  0.21498560  0.70215419    -0.11100
C1026       C  0.39118623  0.20910873  0.73639988     0.06000
C1027       C  0.41347065  0.16555884  0.73946118    -0.09900
C1028       C  0.39922531  0.12870349  0.71043459    -0.11500
C1029       C  0.35672052  0.13184022  0.68453955    -0.01300
C1030       C  0.33945358  0.17741805  0.67680353    -0.10400
C1031       C  0.39810250  0.24674516  0.77160024     0.06000
H1032       H  0.44050513  0.15931335  0.76533815     0.08000
H1033       H  0.41788533  0.09594454  0.71284079     0.11400
H1034       H  0.31103862  0.18505929  0.65295124     0.11700
H1035       H  0.33823173  0.24782142  0.69751971     0.08000
C1036       C  0.38950407  0.29297533  0.75886795    -0.11100
C1037       C  0.37303002  0.32474886  0.79174605    -0.10400
C1038       C  0.36763406  0.31229934  0.83939740    -0.01300
C1039       C  0.38949520  0.26985460  0.85290143    -0.11500
C1040       C  0.40188621  0.23647706  0.81937883    -0.09900
H1041       H  0.39015819  0.30333383  0.72244291     0.08000
H1042       H  0.36268564  0.35748842  0.77751570     0.11700
H1043       H  0.38921499  0.25892614  0.88912523     0.11400
H1044       H  0.40962705  0.20150524  0.83099577     0.08000
C1045       C  0.14005402  0.21932481  0.59744084    -0.11100
C1046       C  0.18750165  0.21378373  0.61065592     0.06000
C1047       C  0.21113404  0.25115543  0.63115541    -0.09900
C1048       C  0.18703169  0.29166691  0.64248434    -0.11500
C1049       C  0.13905446  0.29913640  0.62952324    -0.01300
C1050       C  0.11642788  0.26148052  0.60617560    -0.10400
C1051       C  0.20953024  0.16754695  0.61645350     0.06000
H1052       H  0.24700009  0.24673080  0.64407592     0.08000
H1053       H  0.20562786  0.31344874  0.66672717     0.11400
H1054       H  0.07868800  0.26203030  0.59981526     0.11700
H1055       H  0.12029537  0.19006293  0.58367503     0.08000
C1056       C  0.20901056  0.14867049  0.66147202    -0.11100
C1057       C  0.24499449  0.11899467  0.67587140    -0.10400
C1058       C  0.28169714  0.10490021  0.64502147    -0.01300
C1059       C  0.27802148  0.11921882  0.59773762    -0.11500
C1060       C  0.24260656  0.15078715  0.58394813    -0.09900
H1061       H  0.18452426  0.16191137  0.68747550     0.08000
H1062       H  0.24678956  0.11138615  0.71283649     0.11700
H1063       H  0.30546048  0.11073731  0.57270120     0.11400
H1064       H  0.24381144  0.16553622  0.54931264     0.08000
C1065       C  0.30189638  0.04632032  0.79116639    -0.11100
C1066       C  0.25623584  0.02929743  0.78284613     0.06000
C1067       C  0.24584879  0.01241136  0.73802013    -0.09900
C1068       C  0.27702965  0.02188736  0.70056761    -0.11500
C1069       C  0.31614029  0.05255293  0.70697289    -0.01300
C1070       C  0.33141183  0.05814301  0.75385331    -0.10400
C1071       C  0.21759420  0.04589375  0.81382680     0.06000
H1072       H  0.21118240  0.99775614  0.73069112     0.08000
H1073       H  0.26524287  0.01337552  0.66562016     0.11400
H1074       H  0.36334077  0.07554254  0.76380982     0.11700
H1075       H  0.31176660  0.05750397  0.82597632     0.08000
C1076       C  0.21312098  0.09398158  0.81936941    -0.11100
C1077       C  0.17563375  0.11252477  0.84444503    -0.10400
C1078       C  0.14090102  0.08385930  0.86579058    -0.01300
C1079       C  0.14615708  0.03512072  0.86136820    -0.11500
C1080       C  0.18425735  0.01642446  0.83546151    -0.09900
H1081       H  0.23804323  0.11764692  0.80275629     0.08000
H1082       H  0.17273221  0.15000811  0.84584404     0.11700
H1083       H  0.12046337  0.01143642  0.87653369     0.11400
H1084       H  0.18789392  0.97922824  0.83242286     0.08000
C1085       C  0.01123523  0.27606513  0.29422448    -0.11100
C1086       C  0.02803462  0.23018814  0.29176286     0.06000
C1087       C  0.06002832  0.21504607  0.32568264    -0.09900
C1088       C  0.08037260  0.24645150  0.35683174    -0.11500
C1089       C  0.06718545  0.29403808  0.35733181    -0.01300
C1090       C  0.02864480  0.30688420  0.32836248    -0.10400
C1091       C  0.02633043  0.20320587  0.24769102     0.06000
H1092       H  0.07438123  0.18018540  0.32394934     0.08000
H1093       H  0.10973473  0.23314660  0.37675754     0.11400
H1094       H  0.01686337  0.34262656  0.32741940     0.11700
H1095       H  0.98714059  0.28892858  0.26778582     0.08000
C1096       C  0.01061499  0.15678242  0.24665398    -0.11100
C1097       C  0.02711335  0.12615805  0.21189286    -0.10400
C1098       C  0.06363353  0.14009536  0.18050544    -0.01300
C1099       C  0.07419105  0.18843189  0.17901028    -0.11500
C1100       C  0.05484890  0.21933317  0.21114636    -0.09900
H1101       H  0.98878770  0.14329963  0.27484288     0.08000
H1102       H  0.01709972  0.08995790  0.21480881     0.11700
H1103       H  0.10116359  0.20315731  0.15675132     0.11400
H1104       H  0.06786485  0.25485017  0.21134501     0.08000
C1105       C  0.15626258  0.24591330  0.46780041    -0.11100
C1106       C  0.20243171  0.24198869  0.44971360     0.06000
C1107       C  0.21790566  0.27464664  0.41685197    -0.09900
C1108       C  0.18624779  0.30622632  0.39729807    -0.11500
C1109       C  0.13794348  0.30834158  0.41172145    -0.01300
C1110       C  0.12489951  0.27963758  0.45018065    -0.10400
C1111       C  0.22859257  0.19744814  0.45138480     0.06000
H1112       H  0.25300165  0.27163831  0.40150613     0.08000
H1113       H  0.19972480  0.32494317  0.36742833     0.11400
H1114       H  0.08853141  0.27813639  0.46214011     0.11700
H1115       H  0.14308374  0.22021608  0.49236914     0.08000
C1116       C  0.27565978  0.19509992  0.46731786    -0.11100
C1117       C  0.30577266  0.15920582  0.45220005    -0.10400
C1118       C  0.29107759  0.12839310  0.41637365    -0.01300
C1119       C  0.24208088  0.12846258  0.40496760    -0.11500
C1120       C  0.21130265  0.16153018  0.42336827    -0.09900
H1121       H  0.29005057  0.22281203  0.48861761     0.08000
H1122       H  0.34264309  0.16043359  0.46268576     0.11700
H1123       H  0.22718840  0.10692656  0.37802984     0.11400
H1124       H  0.17529305  0.16290533  0.41013314     0.08000
C1125       C  0.18993627  0.02206935  0.20910009    -0.11100
C1126       C  0.19241245  0.03759166  0.25547998     0.06000
C1127       C  0.15653188  0.06642431  0.27237147    -0.09900
C1128       C  0.12276396  0.08484280  0.24214865    -0.11500
C1129       C  0.12160447  0.07241394  0.19423660    -0.01300
C1130       C  0.15303861  0.03684954  0.17971839    -0.10400
C1131       C  0.23742211  0.03696253  0.28195418     0.06000
H1132       H  0.15847694  0.07991588  0.30765903     0.08000
H1133       H  0.10162047  0.11243344  0.25644066     0.11400
H1134       H  0.15391557  0.02608807  0.14352914     0.11700
H1135       H  0.21809344  0.00083466  0.19483085     0.08000
C1136       C  0.27305922  0.06714617  0.26668241    -0.11100
C1137       C  0.30501989  0.08617909  0.29838015    -0.10400
C1138       C  0.30458285  0.07355573  0.34650059    -0.01300
C1139       C  0.27386563  0.03635885  0.35921247    -0.11500
C1140       C  0.23933784  0.01982873  0.32787447    -0.09900
H1141       H  0.27194278  0.08135343  0.23156172     0.08000
H1142       H  0.32599739  0.11436775  0.28461173     0.11700
H1143       H  0.27104666  0.02517663  0.39517656     0.11400
H1144       H  0.21165319  0.99679893  0.34061997     0.08000
C1145       C  0.41453193  0.15903750  0.29527450    -0.11100
C1146       C  0.39649767  0.20427320  0.29104376     0.06000
C1147       C  0.36441793  0.22012368  0.32455411    -0.09900
C1148       C  0.34504640  0.18957213  0.35720071    -0.11500
C1149       C  0.35999478  0.14259101  0.36012843    -0.01300
C1150       C  0.39876096  0.12952403  0.33143463    -0.10400
C1151       C  0.39669116  0.22927854  0.24592221     0.06000
H1152       H  0.34897678  0.25442915  0.32116558     0.08000
H1153       H  0.31489604  0.20270242  0.37612109     0.11400
H1154       H  0.41145860  0.09406789  0.33210917     0.11700
H1155       H  0.43834868  0.14555752  0.26887160     0.08000
C1156       C  0.41506554  0.27456606  0.24186838    -0.11100
C1157       C  0.39821769  0.30475865  0.20698779    -0.10400
C1158       C  0.35898907  0.29182951  0.17888638    -0.01300
C1159       C  0.34448359  0.24459297  0.18078327    -0.11500
C1160       C  0.36419223  0.21369914  0.21267801    -0.09900
H1161       H  0.43939693  0.28776307  0.26793714     0.08000
H1162       H  0.41091820  0.34032915  0.20663539     0.11700
H1163       H  0.31461629  0.23138699  0.16142633     0.11400
H1164       H  0.34881628  0.17920852  0.21572711     0.08000
C1165       C  0.18950779  0.41573509  0.32584654    -0.11100
C1166       C  0.19178474  0.39969133  0.27971587     0.06000
C1167       C  0.15626008  0.36986120  0.26342408    -0.09900
C1168       C  0.12363525  0.35033211  0.29440828    -0.11500
C1169       C  0.12373649  0.36241212  0.34238150    -0.01300
C1170       C  0.15412959  0.39921343  0.35617233    -0.10400
C1171       C  0.23698345  0.39986296  0.25378800     0.06000
H1172       H  0.15790361  0.35641895  0.22809848     0.08000
H1173       H  0.10222760  0.32252531  0.28057447     0.11400
H1174       H  0.15520209  0.41001336  0.39237907     0.11700
H1175       H  0.21726705  0.43804903  0.33939468     0.08000
C1176       C  0.27252785  0.37058464  0.27044900    -0.11100
C1177       C  0.30518648  0.35112691  0.23978219    -0.10400
C1178       C  0.30485346  0.36212874  0.19140912    -0.01300
C1179       C  0.27413499  0.39851345  0.17714389    -0.11500
C1180       C  0.23935082  0.41570332  0.20754334    -0.09900
H1181       H  0.27091531  0.35743797  0.30597160     0.08000
H1182       H  0.32645445  0.32376742  0.25439795     0.11700
H1183       H  0.27113948  0.40816909  0.14079523     0.11400
H1184       H  0.21170003  0.43793587  0.19385665     0.08000
C1185       C  0.15378616  0.18994937  0.06992403    -0.11100
C1186       C  0.19964119  0.19479258  0.08846078     0.06000
C1187       C  0.21503175  0.16310177  0.12203998    -0.09900
C1188       C  0.18334852  0.13186090  0.14217511    -0.11500
C1189       C  0.13556690  0.12848902  0.12688084    -0.01300
C1190       C  0.12276813  0.15562277  0.08746365    -0.10400
C1191       C  0.22536009  0.23947595  0.08712227     0.06000
H1192       H  0.24987255  0.16699029  0.13765755     0.08000
H1193       H  0.19634368  0.11416727  0.17275408     0.11400
H1194       H  0.08667766  0.15461241  0.07453441     0.11700
H1195       H  0.14077803  0.21492271  0.04469735     0.08000
C1196       C  0.27201350  0.24227038  0.07001413    -0.11100
C1197       C  0.30305512  0.27696847  0.08617617    -0.10400
C1198       C  0.28961343  0.30620695  0.12367709    -0.01300
C1199       C  0.24117479  0.30512190  0.13735512    -0.11500
C1200       C  0.20941065  0.27349343  0.11802048    -0.09900
H1201       H  0.28539793  0.21558934  0.04689955     0.08000
H1202       H  0.33956518  0.27619420  0.07437588     0.11700
H1203       H  0.22767389  0.32466124  0.16649840     0.11400
H1204       H  0.17394749  0.27113503  0.13272381     0.08000
loop_ 
_geom_bond_atom_site_label_1 
_geom_bond_atom_site_label_2 
_geom_bond_distance 
_geom_bond_site_symmetry_2 
_ccdc_geom_bond_type 
C1            C9   1.528       .  S
C1         C1158   1.564       .  S
C1         C1178   1.565       .  S
C1         C1198   1.560       .  S
C2           C96   1.540       .  S
C2         C1118   1.565       .  S
C2         C1138   1.573       .  S
C2         C1149   1.565       .  S
C3          C135   1.537       .  S
C3         C1098   1.573       .  S
C3         C1129   1.562       .  S
C3         C1189   1.565       .  S
C4          C222   1.539       .  S
C4         C1089   1.567       .  S
C4         C1109   1.574       .  S
C4         C1169   1.557       .  S
C5          C106   1.532       .  S
C5         C1029   1.571       .  S
C5         C1058   1.563       .  S
C5         C1069   1.575       .  S
C6          C165   1.532       .  S
C6          C998   1.574       .  S
C6         C1009   1.565       .  S
C6         C1078   1.558       .  S
C7          C192   1.541       .  S
C7          C969   1.567       .  S
C7         C1018   1.553       .  S
C7         C1049   1.568       .  S
C8           C29   1.536       .  S
C8          C978   1.570       .  S
C8          C989   1.563       .  S
C8         C1038   1.579       .  S
C9           N27   1.353       .  A
C9           C46   1.466       .  S
N10          N27   1.323       .  A
N10          N32   1.319       .  A
N10         Co47   2.098       .  S
C11          N36   1.337       .  A
C11          C49   1.469       .  S
C11          H56   1.082       .  S
H12          C53   1.081       .  S
C13          N37   1.331       .  A
C13          C17   1.466       .  S
C13          H42   1.074       .  S
Co14         N32   2.077       .  S
Co14         N22   2.107       .  S
Co14         N54   2.089   1_554  S
Co14         N30   2.091   1_554  S
Co14        Cl58   2.461       .  S
N15          C53   1.331       .  A
N15          N22   1.319       .  A
N15         Co16   2.078       .  S
Co16         N19   2.096       .  S
Co16         N36   2.087   1_554  S
Co16         N23   2.076   1_554  S
Co16        Cl58   2.457       .  S
C17         C129   1.537       .  S
C17          N55   1.361       .  A
N18          N25   1.321       .  A
N18          N48   1.326       .  A
N18         Co51   2.101       .  S
N19          N37   1.315       .  A
N19          N55   1.329       .  A
N20          C49   1.355       .  A
N20          N30   1.329       .  A
H21          C46   1.082       .  S
N22          N43   1.333       .  A
N23          N41   1.320       .  A
N23          N28   1.321       .  A
C24         C131   1.530       .  S
C24          N28   1.348       .  A
C24          C52   1.474       .  S
N25          C40   1.346       .  A
N25         Co47   2.105       .  S
C26          N54   1.337       .  A
C26          C29   1.461       .  S
C26          H60   1.080       .  S
C29          N50   1.363       .  A
N30          N36   1.318       .  A
N31          C57   1.343       .  A
N31          N33   1.321       .  A
N31         Co47   2.113   1_556  S
N32          C46   1.342       .  A
N33          N61   1.328       .  A
N33         Co51   2.075   1_556  S
H34          C57   1.082       .  S
H35          C52   1.081       .  S
N37         Co51   2.070       .  S
N38          N50   1.333       .  A
N38          N54   1.323       .  A
N38         Co47   2.125   1_556  S
C39         C190   1.539       .  S
C39          N43   1.359       .  A
C39          C53   1.466       .  S
C40          C59   1.474       .  S
C40          H44   1.082       .  S
N41          C52   1.346       .  A
N41         Co51   2.104   1_556  S
C45         C123   1.533       .  S
C45          N61   1.349       .  A
C45          C57   1.474       .  S
Co47        Cl58   2.462       .  S
N48          C59   1.354       .  A
C49         C119   1.533       .  S
Co51        Cl58   2.450       .  S
C59          C62   1.537       .  S
C62         C909   1.568       .  S
C62         C929   1.562       .  S
C62         C958   1.560       .  S
C63         C155   1.539       .  S
C63         C869   1.564       .  S
C63         C889   1.562       .  S
C63         C949   1.569       .  S
C64         C200   1.537       .  S
C64         C849   1.564       .  S
C64         C878   1.560       .  S
C64         C938   1.570       .  S
C65          C66   1.533       .  S
C65         C858   1.559       .  S
C65         C898   1.564       .  S
C65         C918   1.566       .  S
C66          N84   1.353       .  A
C66         C103   1.472       .  S
N67          N84   1.324       .  A
N67          N89   1.319       .  A
N67        Co104   2.095       .  S
C68          N93   1.342       .  A
C68         C106   1.471       .  S
C68         H113   1.081       .  S
H69         C110   1.082       .  S
C70          N94   1.342       .  A
C70          C74   1.473       .  S
C70          H99   1.081       .  S
Co71         N89   2.097       .  S
Co71         N79   2.100   1_565  S
Co71        N111   2.094       .  S
Co71         N87   2.092   1_565  S
Co71       Cl115   2.468       .  S
N72         C110   1.346       .  A
N72          N79   1.319       .  A
N72         Co73   2.102       .  S
Co73         N76   2.102       .  S
Co73         N93   2.104       .  S
Co73         N80   2.099       .  S
Co73       Cl115   2.451   1_545  S
C74         C188   1.539       .  S
C74         N112   1.354       .  A
N75          N82   1.320       .  A
N75         N105   1.334       .  A
N75        Co108   2.111       .  S
N76          N94   1.322       .  A
N76         N112   1.328       .  A
N77         C106   1.354       .  A
N77          N87   1.328       .  A
H78         C103   1.082       .  S
N79         N100   1.327       .  A
N80          N98   1.319       .  A
N80          N85   1.324       .  A
C81         C121   1.544       .  S
C81          N85   1.356       .  A
C81         C109   1.480       .  S
N82          C97   1.335       .  A
N82        Co104   2.094       .  S
C83         N111   1.342       .  A
C83          C86   1.467       .  S
C83         H117   1.082       .  S
C86         C124   1.532       .  S
C86         N107   1.359       .  A
N87          N93   1.321       .  A
N88         C114   1.343       .  A
N88          N90   1.322       .  A
N88        Co104   2.095       .  S
N89         C103   1.344       .  A
N90         N118   1.327       .  A
N90        Co108   2.106       .  S
H91         C114   1.082       .  S
H92         C109   1.079       .  S
N94        Co108   2.101   1_545  S
N95         N107   1.330       .  A
N95         N111   1.319       .  A
N95        Co104   2.108       .  S
C96         N100   1.355       .  A
C96         C110   1.472       .  S
C97         C116   1.469       .  S
C97         H101   1.077       .  S
N98         C109   1.347       .  A
N98        Co108   2.108   1_545  S
C102        C133   1.527       .  S
C102        N118   1.356       .  A
C102        C114   1.466       .  S
Co104      Cl115   2.449       .  S
N105        C116   1.361       .  A
Co108      Cl115   2.477       .  S
C116        C127   1.544       .  S
C119        C789   1.565       .  S
C119        C809   1.548       .  S
C119        C829   1.557       .  S
C120        C212   1.533       .  S
C120        C749   1.562       .  S
C120        C778   1.550       .  S
C120        C838   1.563       .  S
C121        C738   1.557       .  S
C121        C758   1.564       .  S
C121        C798   1.571       .  S
C122        C143   1.534       .  S
C122        C729   1.563       .  S
C122        C769   1.576       .  S
C122        C818   1.572       .  S
C123        C669   1.544       .  S
C123        C689   1.560       .  S
C123        C709   1.561       .  S
C124        C629   1.557       .  S
C124        C658   1.563       .  S
C124        C718   1.553       .  S
C125        C242   1.530       .  S
C125        C609   1.550       .  S
C125        C638   1.558       .  S
C125        C678   1.558       .  S
C126        C175   1.536       .  S
C126        C618   1.570       .  S
C126        C649   1.549       .  S
C126        C698   1.567       .  S
C127        C558   1.574       .  S
C127        C578   1.573       .  S
C127        C589   1.562       .  S
C128        C207   1.527       .  S
C128        C509   1.559       .  S
C128        C529   1.550       .  S
C128        C598   1.562       .  S
C129        C489   1.561       .  S
C129        C518   1.556       .  S
C129        C549   1.570       .  S
C130        C171   1.538       .  S
C130        C498   1.573       .  S
C130        C538   1.570       .  S
C130        C569   1.556       .  S
C131        C429   1.561       .  S
C131        C449   1.563       .  S
C131        C478   1.560       .  S
C132        C228   1.544       .  S
C132        C398   1.564       .  S
C132        C409   1.555       .  S
C132        C458   1.559       .  S
C133        C369   1.552       .  S
C133        C389   1.560       .  S
C133        C438   1.559       .  S
C134        C150   1.529       .  S
C134        C378   1.565       .  S
C134        C418   1.564       .  S
C134        C469   1.550       .  S
C135        N153   1.355       .  A
C135        C172   1.472       .  S
N136        N153   1.328       .  A
N136        N158   1.321       .  A
N136       Co173   2.103   1_445  S
C137        N162   1.344       .  A
C137        C175   1.476       .  S
C137        H182   1.078   1_455  S
H138        C179   1.082   1_655  S
C139        N163   1.344       .  A
C139        C143   1.473       .  S
C139        H168   1.081       .  S
Co140       N158   2.100   1_565  S
Co140       N148   2.090   1_564  S
Co140       N180   2.090       .  S
Co140       N156   2.094   1_554  S
Co140      Cl184   2.456   1_455  S
N141        C179   1.343       .  A
N141        N148   1.319       .  A
N141       Co142   2.096   1_445  S
Co142       N145   2.103   1_565  S
Co142       N162   2.103   1_655  S
Co142       N149   2.100       .  S
Co142      Cl184   2.457   1_556  S
C143        N181   1.355       .  A
N144        N151   1.318       .  A
N144        N174   1.327       .  A
N144       Co177   2.094   1_545  S
N145        N163   1.322       .  A
N145        N181   1.327       .  A
N146        C175   1.354       .  A
N146        N156   1.323       .  A
H147        C172   1.082       .  S
N148        N169   1.328       .  A
N149        N167   1.319       .  A
N149        N154   1.329       .  A
C150        N154   1.355       .  A
C150        C178   1.469       .  S
N151        C166   1.337       .  A
N151       Co173   2.080   1_545  S
C152        N180   1.339       .  A
C152        C155   1.473       .  S
C152        H186   1.076       .  S
C155        N176   1.356       .  A
N156        N162   1.321       .  A
N157        C183   1.343       .  A
N157        N159   1.321       .  A
N157       Co173   2.095       .  S
N158        C172   1.342       .  A
N159        N187   1.327       .  A
N159       Co177   2.111       .  S
H160        C183   1.082       .  S
H161        C178   1.082       .  S
N163       Co177   2.107   1_546  S
N164        N176   1.326       .  A
N164        N180   1.315       .  A
N164       Co173   2.084   1_455  S
C165        N169   1.353       .  A
C165        C179   1.469       .  S
C166        C185   1.463       .  S
C166        H170   1.082       .  S
N167        C178   1.343       .  A
N167       Co177   2.097   1_556  S
C171        N187   1.357       .  A
C171        C183   1.469       .  S
Co173      Cl184   2.455       .  S
N174        C185   1.356       .  A
Co177      Cl184   2.462       .  S
C185        C189   1.519       .  S
C188        C318   1.569       .  S
C188        C329   1.565       .  S
C188        C349   1.560       .  S
C189        C269   1.547       .  S
C189        C289   1.557       .  S
C189        C358   1.559       .  S
C190        C249   1.559       .  S
C190        C278   1.548       .  S
C190        C309   1.571       .  S
C191        C232   1.546       .  S
C191        C258   1.573       .  S
C191        C298   1.561       .  S
C191        C338   1.566       .  S
C192        N210   1.353       .  A
C192        C229   1.478       .  S
N193        N210   1.322       .  A
N193        N215   1.321       .  A
N193       Co230   2.087   1_455  S
C194        N219   1.336       .  A
C194        C232   1.467       .  S
C194        H239   1.076       .  S
H195        C236   1.082       .  S
C196        N220   1.347       .  A
C196        C200   1.472       .  S
C196        H225   1.082       .  S
Co197       N215   2.115   1_655  S
Co197       N205   2.080   1_655  S
Co197       N237   2.083       .  S
Co197       N213   2.120       .  S
Co197      Cl241   2.462       .  S
N198        C236   1.346       .  A
N198        N205   1.321       .  A
N198       Co199   2.115   1_455  S
Co199       N202   2.090   1_655  S
Co199       N219   2.081       .  S
Co199       N206   2.103       .  S
Co199      Cl241   2.457       .  S
C200        N238   1.352       .  A
N201        N208   1.320       .  A
N201        N231   1.321       .  A
N201       Co234   2.069   1_455  S
N202        N220   1.321       .  A
N202        N238   1.324       .  A
N203        C232   1.364       .  A
N203        N213   1.332       .  A
H204        C229   1.079       .  S
N205        N226   1.325       .  A
N206        N224   1.319       .  A
N206        N211   1.327       .  A
C207        N211   1.356       .  A
C207        C235   1.462       .  S
N208        C223   1.345       .  A
N208       Co230   2.109   1_455  S
C209        N237   1.338       .  A
C209        C212   1.465       .  S
C209        H243   1.082       .  S
C212        N233   1.356       .  A
N213        N219   1.318       .  A
N214        C240   1.341       .  A
N214        N216   1.320       .  A
N214       Co230   2.100       .  S
N215        C229   1.349       .  A
N216        N244   1.330       .  A
N216       Co234   2.102       .  S
H217        C240   1.082       .  S
H218        C235   1.082       .  S
N220       Co234   2.105   1_455  S
N221        N233   1.327       .  A
N221        N237   1.321       .  A
N221       Co230   2.100       .  S
C222        N226   1.349       .  A
C222        C236   1.478       .  S
C223        C242   1.477       .  S
C223        H227   1.079       .  S
N224        C235   1.335       .  A
N224       Co234   2.069       .  S
C228        N244   1.355       .  A
C228        C240   1.472       .  S
Co230      Cl241   2.460       .  S
N231        C242   1.350       .  A
Co234      Cl241   2.464       .  S
C245        H255   1.083       .  S
C245        C246   1.411       .  A
C245        C250   1.400       .  A
C246        C251   1.489       .  S
C246        C247   1.404       .  A
C247        H252   1.082       .  S
C247        C248   1.391       .  A
C248        H253   1.083       .  S
C248        C249   1.416       .  A
C249        C250   1.402       .  A
C250        H254   1.083       .  S
C251        C256   1.398       .  A
C251        C260   1.403       .  A
C256        H261   1.083       .  S
C256        C257   1.392       .  A
C257        H262   1.071       .  S
C257        C258   1.420       .  A
C258        C259   1.418       .  A
C259        H263   1.079       .  S
C259        C260   1.400       .  A
C260        H264   1.080       .  S
C265        H275   1.085       .  S
C265        C266   1.394       .  A
C265        C270   1.377       .  A
C266        C271   1.475       .  S
C266        C267   1.404       .  A
C267        H272   1.081       .  S
C267        C268   1.410       .  A
C268        H273   1.082       .  S
C268        C269   1.416       .  A
C269        C270   1.413       .  A
C270        H274   1.078       .  S
C271        C276   1.402       .  A
C271        C280   1.395       .  A
C276        H281   1.077       .  S
C276        C277   1.413       .  A
C277        H282   1.082       .  S
C277        C278   1.414       .  A
C278        C279   1.413       .  A
C279        H283   1.082       .  S
C279        C280   1.378       .  A
C280        H284   1.084       .  S
C285        H295   1.084       .  S
C285        C286   1.397       .  A
C285        C290   1.392       .  A
C286        C291   1.476       .  S
C286        C287   1.401       .  A
C287        H292   1.083       .  S
C287        C288   1.405       .  A
C288        H293   1.082       .  S
C288        C289   1.417       .  A
C289        C290   1.416       .  A
C290        H294   1.078       .  S
C291        C296   1.394       .  A
C291        C300   1.403       .  A
C296        H301   1.085       .  S
C296        C297   1.390       .  A
C297        H302   1.077       .  S
C297        C298   1.421       .  A
C298        C299   1.418       .  A
C299        H303   1.082       .  S
C299        C300   1.407       .  A
C300        H304   1.083       .  S
C305        H315   1.085       .  S
C305        C306   1.392       .  A
C305        C310   1.391       .  A
C306        C311   1.484       .  S
C306        C307   1.405       .  A
C307        H312   1.083       .  S
C307        C308   1.408       .  A
C308        H313   1.081       .  S
C308        C309   1.419       .  A
C309        C310   1.424       .  A
C310        H314   1.070       .  S
C311        C316   1.395       .  A
C311        C320   1.406       .  A
C316        H321   1.084       .  S
C316        C317   1.393       .  A
C317        H322   1.077       .  S
C317        C318   1.423       .  A
C318        C319   1.418       .  A
C319        H323   1.080       .  S
C319        C320   1.407       .  A
C320        H324   1.083       .  S
C325        H335   1.084       .  S
C325        C326   1.393       .  A
C325        C330   1.391       .  A
C326        C331   1.478       .  S
C326        C327   1.404       .  A
C327        H332   1.081       .  S
C327        C328   1.408       .  A
C328        H333   1.083       .  S
C328        C329   1.418       .  A
C329        C330   1.419       .  A
C330        H334   1.074       .  S
C331        C336   1.404       .  A
C331        C340   1.394       .  A
C336        H341   1.077       .  S
C336        C337   1.404       .  A
C337        H342   1.083       .  S
C337        C338   1.412       .  A
C338        C339   1.423       .  A
C339        H343   1.075       .  S
C339        C340   1.391       .  A
C340        H344   1.085       .  S
C345        H355   1.075   1_545  S
C345        C346   1.405       .  A
C345        C350   1.402       .  A
C346        C351   1.490       .  S
C346        C347   1.402       .  A
C347        H352   1.082       .  S
C347        C348   1.388       .  A
C348        H353   1.078       .  S
C348        C349   1.414       .  A
C349        C350   1.415       .  A
C350        H354   1.083       .  S
C351        C356   1.407       .  A
C351        C360   1.410       .  A
C356        H361   1.082       .  S
C356        C357   1.403       .  A
C357        H362   1.083       .  S
C357        C358   1.415       .  A
C358        C359   1.407       .  A
C359        H363   1.083       .  S
C359        C360   1.399       .  A
C360        H364   1.083       .  S
C365        H375   1.079       .  S
C365        C366   1.398       .  A
C365        C370   1.387       .  A
C366        C371   1.480       .  S
C366        C367   1.402       .  A
C367        H372   1.080       .  S
C367        C368   1.408       .  A
C368        H373   1.081       .  S
C368        C369   1.416       .  A
C369        C370   1.412       .  A
C370        H374   1.083       .  S
C371        C376   1.401       .  A
C371        C380   1.407       .  A
C376        H381   1.083       .  S
C376        C377   1.401       .  A
C377        H382   1.083       .  S
C377        C378   1.416       .  A
C378        C379   1.409       .  A
C379        H383   1.083       .  S
C379        C380   1.406       .  A
C380        H384   1.083       .  S
C385        H395   1.083       .  S
C385        C386   1.408       .  A
C385        C390   1.404       .  A
C386        C391   1.485       .  S
C386        C387   1.402       .  A
C387        H392   1.083       .  S
C387        C388   1.397       .  A
C388        H393   1.082       .  S
C388        C389   1.415       .  A
C389        C390   1.411       .  A
C390        H394   1.083       .  S
C391        C396   1.403       .  A
C391        C400   1.396       .  A
C396        H401   1.083       .  S
C396        C397   1.404       .  A
C397        H402   1.080       .  S
C397        C398   1.419       .  A
C398        C399   1.420       .  A
C399        H403   1.075       .  S
C399        C400   1.391       .  A
C400        H404   1.084       .  S
C405        H415   1.085       .  S
C405        C406   1.396       .  A
C405        C410   1.384       .  A
C406        C411   1.481       .  S
C406        C407   1.406       .  A
C407        H412   1.082       .  S
C407        C408   1.415       .  A
C408        H413   1.081       .  S
C408        C409   1.415       .  A
C409        C410   1.415       .  A
C410        H414   1.082       .  S
C411        C416   1.394       .  A
C411        C420   1.404       .  A
C416        H421   1.085       .  S
C416        C417   1.388       .  A
C417        H422   1.068       .  S
C417        C418   1.418       .  A
C418        C419   1.418       .  A
C419        H423   1.083       .  S
C419        C420   1.411       .  A
C420        H424   1.083       .  S
C425        H435   1.080       .  S
C425        C426   1.403       .  A
C425        C430   1.404       .  A
C426        C431   1.473       .  S
C426        C427   1.394       .  A
C427        H432   1.085       .  S
C427        C428   1.388       .  A
C428        H433   1.073       .  S
C428        C429   1.419       .  A
C429        C430   1.415       .  A
C430        H434   1.083       .  S
C431        C436   1.395       .  A
C431        C440   1.402       .  A
C436        H441   1.085       .  S
C436        C437   1.390       .  A
C437        H442   1.072       .  S
C437        C438   1.418       .  A
C438        C439   1.416       .  A
C439        H443   1.083       .  S
C439        C440   1.403       .  A
C440        H444   1.083       .  S
C445        H455   1.084       .  S
C445        C446   1.398       .  A
C445        C450   1.393       .  A
C446        C451   1.482       .  S
C446        C447   1.402       .  A
C447        H452   1.081       .  S
C447        C448   1.398       .  A
C448        H453   1.080       .  S
C448        C449   1.418       .  A
C449        C450   1.419       .  A
C450        H454   1.075       .  S
C451        C456   1.407       .  A
C451        C460   1.401       .  A
C456        H461   1.083       .  S
C456        C457   1.403       .  A
C457        H462   1.083       .  S
C457        C458   1.411       .  A
C458        C459   1.413       .  A
C459        H463   1.082       .  S
C459        C460   1.393       .  A
C460        H464   1.083       .  S
C465        H475   1.082       .  S
C465        C466   1.402       .  A
C465        C470   1.408       .  A
C466        C471   1.470       .  S
C466        C467   1.394       .  A
C467        H472   1.083       .  S
C467        C468   1.381       .  A
C468        H473   1.079       .  S
C468        C469   1.412       .  A
C469        C470   1.416       .  A
C470        H474   1.081       .  S
C471        C476   1.393       .  A
C471        C480   1.402       .  A
C476        H481   1.084       .  S
C476        C477   1.389       .  A
C477        H482   1.076       .  S
C477        C478   1.421       .  A
C478        C479   1.415       .  A
C479        H483   1.082       .  S
C479        C480   1.403       .  A
C480        H484   1.082       .  S
C485        H495   1.083       .  S
C485        C486   1.407       .  A
C485        C490   1.406       .  A
C486        C491   1.477       .  S
C486        C487   1.392       .  A
C487        H492   1.084       .  S
C487        C488   1.384       .  A
C488        H493   1.074       .  S
C488        C489   1.419       .  A
C489        C490   1.417       .  A
C490        H494   1.082       .  S
C491        C496   1.391       .  A
C491        C500   1.403       .  A
C496        H501   1.085       .  S
C496        C497   1.390       .  A
C497        H502   1.067       .  S
C497        C498   1.423       .  A
C498        C499   1.419       .  A
C499        H503   1.079       .  S
C499        C500   1.402       .  A
C500        H504   1.083       .  S
C505        H515   1.084       .  S
C505        C506   1.397       .  A
C505        C510   1.394       .  A
C506        C511   1.478       .  S
C506        C507   1.398       .  A
C507        H512   1.082       .  S
C507        C508   1.395       .  A
C508        H513   1.081       .  S
C508        C509   1.419       .  A
C509        C510   1.419       .  A
C510        H514   1.071       .  S
C511        C516   1.400       .  A
C511        C520   1.397       .  A
C516        H521   1.078       .  S
C516        C517   1.399       .  A
C517        H522   1.083       .  S
C517        C518   1.412       .  A
C518        C519   1.420       .  A
C519        H523   1.078       .  S
C519        C520   1.392       .  A
C520        H524   1.084       .  S
C525        H535   1.084       .  S
C525        C526   1.398       .  A
C525        C530   1.383       .  A
C526        C531   1.480       .  S
C526        C527   1.403       .  A
C527        H532   1.077       .  S
C527        C528   1.409       .  A
C528        H533   1.081       .  S
C528        C529   1.415       .  A
C529        C530   1.413       .  A
C530        H534   1.084       .  S
C531        C536   1.403       .  A
C531        C540   1.399       .  A
C536        H541   1.083       .  S
C536        C537   1.411       .  A
C537        H542   1.083       .  S
C537        C538   1.412       .  A
C538        C539   1.416       .  A
C539        H543   1.078       .  S
C539        C540   1.390       .  A
C540        H544   1.084       .  S
C545        H555   1.081       .  S
C545        C546   1.397       .  A
C545        C550   1.395       .  A
C546        C551   1.473       .  S
C546        C547   1.394       .  A
C547        H552   1.084       .  S
C547        C548   1.388       .  A
C548        H553   1.071       .  S
C548        C549   1.422       .  A
C549        C550   1.417       .  A
C550        H554   1.078       .  S
C551        C556   1.394       .  A
C551        C560   1.397       .  A
C556        H561   1.084       .  S
C556        C557   1.390       .  A
C557        H562   1.066       .  S
C557        C558   1.419       .  A
C558        C559   1.421       .  A
C559        H563   1.080       .  S
C559        C560   1.396       .  A
C560        H564   1.083       .  S
C565        H575   1.071       .  S
C565        C566   1.399       .  A
C565        C570   1.404       .  A
C566        C571   1.479       .  S
C566        C567   1.397       .  A
C567        H572   1.084       .  S
C567        C568   1.390       .  A
C568        H573   1.080       .  S
C568        C569   1.416       .  A
C569        C570   1.417       .  A
C570        H574   1.081       .  S
C571        C576   1.393       .  A
C571        C580   1.401       .  A
C576        H581   1.084       .  S
C576        C577   1.390       .  A
C577        H582   1.076       .  S
C577        C578   1.425       .  A
C578        C579   1.413       .  A
C579        H583   1.083       .  S
C579        C580   1.412       .  A
C580        H584   1.081       .  S
C585        H595   1.079       .  S
C585        C586   1.405       .  A
C585        C590   1.405       .  A
C586        C591   1.478       .  S
C586        C587   1.394       .  A
C587        H592   1.085       .  S
C587        C588   1.386       .  A
C588        H593   1.080       .  S
C588        C589   1.422       .  A
C589        C590   1.414       .  A
C590        H594   1.081       .  S
C591        C596   1.398       .  A
C591        C600   1.409       .  A
C596        H601   1.083       .  S
C596        C597   1.394       .  A
C597        H602   1.082       .  S
C597        C598   1.417       .  A
C598        C599   1.409       .  A
C599        H603   1.083       .  S
C599        C600   1.405       .  A
C600        H604   1.083       .  S
C605        H615   1.081   1_455  S
C605        C606   1.404       .  A
C605        C610   1.410       .  A
C606        C611   1.474       .  S
C606        C607   1.396       .  A
C607        H612   1.085       .  S
C607        C608   1.383       .  A
C608        H613   1.083       .  S
C608        C609   1.414       .  A
C609        C610   1.415       .  A
C610        H614   1.081       .  S
C611        C616   1.398       .  A
C611        C620   1.395       .  A
C616        H621   1.083       .  S
C616        C617   1.401       .  A
C617        H622   1.079       .  S
C617        C618   1.421       .  A
C618        C619   1.421       .  A
C619        H623   1.070       .  S
C619        C620   1.395       .  A
C620        H624   1.084       .  S
C625        H635   1.081       .  S
C625        C626   1.407       .  A
C625        C630   1.397       .  A
C626        C631   1.498       .  S
C626        C627   1.410       .  A
C627        H632   1.081       .  S
C627        C628   1.403       .  A
C628        H633   1.083       .  S
C628        C629   1.407       .  A
C629        C630   1.411       .  A
C630        H634   1.082       .  S
C631        C636   1.412       .  A
C631        C640   1.407       .  A
C636        H641   1.081       .  S
C636        C637   1.400       .  A
C637        H642   1.083       .  S
C637        C638   1.405       .  A
C638        C639   1.414       .  A
C639        H643   1.082       .  S
C639        C640   1.394       .  A
C640        H644   1.081       .  S
C645        H655   1.082       .  S
C645        C646   1.403       .  A
C645        C650   1.409       .  A
C646        C651   1.472       .  S
C646        C647   1.396       .  A
C647        H652   1.085       .  S
C647        C648   1.381       .  A
C648        H653   1.083       .  S
C648        C649   1.413       .  A
C649        C650   1.415       .  A
C650        H654   1.081       .  S
C651        C656   1.392       .  A
C651        C660   1.403       .  A
C656        H661   1.085       .  S
C656        C657   1.385       .  A
C657        H662   1.071       .  S
C657        C658   1.418       .  A
C658        C659   1.417       .  A
C659        H663   1.083       .  S
C659        C660   1.407       .  A
C660        H664   1.083       .  S
C665        H675   1.084       .  S
C665        C666   1.395       .  A
C665        C670   1.386       .  A
C666        C671   1.460       .  S
C666        C667   1.393       .  A
C667        H672   1.073       .  S
C667        C668   1.393       .  A
C668        H673   1.081       .  S
C668        C669   1.413       .  A
C669        C670   1.415       .  A
C670        H674   1.082       .  S
C671        C676   1.396       .  A
C671        C680   1.390       .  A
C676        H681   1.083       .  S
C676        C677   1.396       .  A
C677        H682   1.080       .  S
C677        C678   1.419       .  A
C678        C679   1.420       .  A
C679        H683   1.070       .  S
C679        C680   1.387       .  A
C680        H684   1.085       .  S
C685        H695   1.082   1_556  S
C685        C686   1.412       .  A
C685        C690   1.406       .  A
C686        C691   1.493       .  S
C686        C687   1.404       .  A
C687        H692   1.082       .  S
C687        C688   1.397       .  A
C688        H693   1.082       .  S
C688        C689   1.412       .  A
C689        C690   1.410       .  A
C690        H694   1.083       .  S
C691        C696   1.401       .  A
C691        C700   1.411       .  A
C696        H701   1.083       .  S
C696        C697   1.393       .  A
C697        H702   1.082       .  S
C697        C698   1.418       .  A
C698        C699   1.409       .  A
C699        H703   1.083       .  S
C699        C700   1.406       .  A
C700        H704   1.083   1_556  S
C705        H715   1.084       .  S
C705        C706   1.394       .  A
C705        C710   1.391       .  A
C706        C711   1.479       .  S
C706        C707   1.402       .  A
C707        H712   1.081       .  S
C707        C708   1.408       .  A
C708        H713   1.082       .  S
C708        C709   1.417       .  A
C709        C710   1.421       .  A
C710        H714   1.075       .  S
C711        C716   1.395       .  A
C711        C720   1.405       .  A
C716        H721   1.084       .  S
C716        C717   1.387       .  A
C717        H722   1.082       .  S
C717        C718   1.416       .  A
C718        C719   1.414       .  A
C719        H723   1.081       .  S
C719        C720   1.412       .  A
C720        H724   1.079       .  S
C725        H735   1.085       .  S
C725        C726   1.394       .  A
C725        C730   1.385       .  A
C726        C731   1.476       .  S
C726        C727   1.403       .  A
C727        H732   1.081       .  S
C727        C728   1.406       .  A
C728        H733   1.083       .  S
C728        C729   1.418       .  A
C729        C730   1.418       .  A
C730        H734   1.071       .  S
C731        C736   1.395       .  A
C731        C740   1.401       .  A
C736        H741   1.085       .  S
C736        C737   1.378       .  A
C737        H742   1.082       .  S
C737        C738   1.416       .  A
C738        C739   1.414       .  A
C739        H743   1.073       .  S
C739        C740   1.413       .  A
C740        H744   1.079   1_545  S
C745        H755   1.083       .  S
C745        C746   1.402       .  A
C745        C750   1.399       .  A
C746        C751   1.487       .  S
C746        C747   1.406       .  A
C747        H752   1.081       .  S
C747        C748   1.400       .  A
C748        H753   1.083       .  S
C748        C749   1.405       .  A
C749        C750   1.418       .  A
C750        H754   1.082       .  S
C751        C756   1.404       .  A
C751        C760   1.398       .  A
C756        H761   1.082       .  S
C756        C757   1.405       .  A
C757        H762   1.081       .  S
C757        C758   1.419       .  A
C758        C759   1.417       .  A
C759        H763   1.071       .  S
C759        C760   1.388       .  A
C760        H764   1.084       .  S
C765        H775   1.082       .  S
C765        C766   1.403       .  A
C765        C770   1.412       .  A
C766        C771   1.484       .  S
C766        C767   1.395       .  A
C767        H772   1.085       .  S
C767        C768   1.390       .  A
C768        H773   1.072       .  S
C768        C769   1.423       .  A
C769        C770   1.421       .  A
C770        H774   1.080       .  S
C771        C776   1.407       .  A
C771        C780   1.397       .  A
C776        H781   1.082       .  S
C776        C777   1.416       .  A
C777        H782   1.081       .  S
C777        C778   1.415       .  A
C778        C779   1.412       .  A
C779        H783   1.083       .  S
C779        C780   1.379       .  A
C780        H784   1.084       .  S
C785        H795   1.084       .  S
C785        C786   1.396       .  A
C785        C790   1.391       .  A
C786        C791   1.486       .  S
C786        C787   1.404       .  A
C787        H792   1.082       .  S
C787        C788   1.406       .  A
C788        H793   1.080       .  S
C788        C789   1.418       .  A
C789        C790   1.421       .  A
C790        H794   1.074       .  S
C791        C796   1.408       .  A
C791        C800   1.401       .  A
C796        H801   1.083       .  S
C796        C797   1.405       .  A
C797        H802   1.083       .  S
C797        C798   1.411       .  A
C798        C799   1.419       .  A
C799        H803   1.082       .  S
C799        C800   1.397       .  A
C800        H804   1.083       .  S
C805        H815   1.077       .  S
C805        C806   1.403       .  A
C805        C810   1.409       .  A
C806        C811   1.479       .  S
C806        C807   1.399       .  A
C807        H812   1.084       .  S
C807        C808   1.380       .  A
C808        H813   1.083       .  S
C808        C809   1.411       .  A
C809        C810   1.416       .  A
C810        H814   1.080       .  S
C811        C816   1.405       .  A
C811        C820   1.393       .  A
C816        H821   1.081   1_556  S
C816        C817   1.412       .  A
C817        H822   1.083       .  S
C817        C818   1.419       .  A
C818        C819   1.421       .  A
C819        H823   1.071       .  S
C819        C820   1.387       .  A
C820        H824   1.085       .  S
C825        H835   1.083       .  S
C825        C826   1.402       .  A
C825        C830   1.393       .  A
C826        C831   1.479       .  S
C826        C827   1.408       .  A
C827        H832   1.083       .  S
C827        C828   1.401       .  A
C828        H833   1.083       .  S
C828        C829   1.409       .  A
C829        C830   1.414       .  A
C830        H834   1.082       .  S
C831        C836   1.401       .  A
C831        C840   1.396       .  A
C836        H841   1.083       .  S
C836        C837   1.399       .  A
C837        H842   1.080       .  S
C837        C838   1.420       .  A
C838        C839   1.419       .  A
C839        H843   1.072       .  S
C839        C840   1.390       .  A
C840        H844   1.084       .  S
C845        H855   1.084       .  S
C845        C846   1.391       .  A
C845        C850   1.390       .  A
C846        C851   1.474       .  S
C846        C847   1.401       .  A
C847        H852   1.078       .  S
C847        C848   1.401       .  A
C848        H853   1.083       .  S
C848        C849   1.410       .  A
C849        C850   1.424       .  A
C850        H854   1.071       .  S
C851        C856   1.392       .  A
C851        C860   1.403       .  A
C856        H861   1.084       .  S
C856        C857   1.386       .  A
C857        H862   1.072       .  S
C857        C858   1.420       .  A
C858        C859   1.415       .  A
C859        H863   1.082       .  S
C859        C860   1.400       .  A
C860        H864   1.081       .  S
C865        H875   1.084       .  S
C865        C866   1.397       .  A
C865        C870   1.393       .  A
C866        C871   1.477       .  S
C866        C867   1.401       .  A
C867        H872   1.077   1_455  S
C867        C868   1.404       .  A
C868        H873   1.083       .  S
C868        C869   1.416       .  A
C869        C870   1.420       .  A
C870        H874   1.078       .  S
C871        C876   1.395       .  A
C871        C880   1.404       .  A
C876        H881   1.085       .  S
C876        C877   1.389       .  A
C877        H882   1.078       .  S
C877        C878   1.419       .  A
C878        C879   1.418       .  A
C879        H883   1.082       .  S
C879        C880   1.410       .  A
C880        H884   1.083   1_455  S
C885        H895   1.085       .  S
C885        C886   1.393       .  A
C885        C890   1.388       .  A
C886        C891   1.473       .  S
C886        C887   1.405       .  A
C887        H892   1.083       .  S
C887        C888   1.403       .  A
C888        H893   1.082       .  S
C888        C889   1.416       .  A
C889        C890   1.420       .  A
C890        H894   1.073       .  S
C891        C896   1.392       .  A
C891        C900   1.406       .  A
C896        H901   1.085       .  S
C896        C897   1.383       .  A
C897        H902   1.076       .  S
C897        C898   1.419       .  A
C898        C899   1.417       .  A
C899        H903   1.083       .  S
C899        C900   1.408       .  A
C900        H904   1.083       .  S
C905        H915   1.079       .  S
C905        C906   1.400       .  A
C905        C910   1.401       .  A
C906        C911   1.484       .  S
C906        C907   1.398       .  A
C907        H912   1.084       .  S
C907        C908   1.398       .  A
C908        H913   1.075       .  S
C908        C909   1.422       .  A
C909        C910   1.417       .  A
C910        H914   1.081       .  S
C911        C916   1.401       .  A
C911        C920   1.398       .  A
C916        H921   1.080       .  S
C916        C917   1.403       .  A
C917        H922   1.080       .  S
C917        C918   1.419       .  A
C918        C919   1.420       .  A
C919        H923   1.077       .  S
C919        C920   1.394       .  A
C920        H924   1.084       .  S
C925        H935   1.083       .  S
C925        C926   1.405       .  A
C925        C930   1.407       .  A
C926        C931   1.473       .  S
C926        C927   1.393       .  A
C927        H932   1.085       .  S
C927        C928   1.385       .  A
C928        H933   1.076       .  S
C928        C929   1.420       .  A
C929        C930   1.416       .  A
C930        H934   1.083       .  S
C931        C936   1.394       .  A
C931        C940   1.401       .  A
C936        H941   1.085       .  S
C936        C937   1.391       .  A
C937        H942   1.073       .  S
C937        C938   1.421       .  A
C938        C939   1.420       .  A
C939        H943   1.080       .  S
C939        C940   1.401       .  A
C940        H944   1.083       .  S
C945        H955   1.082       .  S
C945        C946   1.399       .  A
C945        C950   1.398       .  A
C946        C951   1.471       .  S
C946        C947   1.392       .  A
C947        H952   1.084       .  S
C947        C948   1.392       .  A
C948        H953   1.073       .  S
C948        C949   1.424       .  A
C949        C950   1.416       .  A
C950        H954   1.076       .  S
C951        C956   1.402       .  A
C951        C960   1.392       .  A
C956        H961   1.079       .  S
C956        C957   1.402       .  A
C957        H962   1.081       .  S
C957        C958   1.416       .  A
C958        C959   1.421       .  A
C959        H963   1.076       .  S
C959        C960   1.386       .  A
C960        H964   1.085       .  S
C965        H975   1.082       .  S
C965        C966   1.408       .  A
C965        C970   1.409       .  A
C966        C971   1.495       .  S
C966        C967   1.405       .  A
C967        H972   1.083       .  S
C967        C968   1.395       .  A
C968        H973   1.083       .  S
C968        C969   1.414       .  A
C969        C970   1.411       .  A
C970        H974   1.083       .  S
C971        C976   1.406       .  A
C971        C980   1.402       .  A
C976        H981   1.082       .  S
C976        C977   1.410       .  A
C977        H982   1.083       .  S
C977        C978   1.413       .  A
C978        C979   1.419       .  A
C979        H983   1.078       .  S
C979        C980   1.389       .  A
C980        H984   1.083       .  S
C985        H995   1.081       .  S
C985        C986   1.403       .  A
C985        C990   1.408       .  A
C986        C991   1.476       .  S
C986        C987   1.396       .  A
C987        H992   1.084       .  S
C987        C988   1.388       .  A
C988        H993   1.082       .  S
C988        C989   1.419       .  A
C989        C990   1.417       .  A
C990        H994   1.081       .  S
C991        C996   1.402       .  A
C991       C1000   1.392       .  A
C996       H1001   1.083       .  S
C996        C997   1.406       .  A
C997       H1002   1.082       .  S
C997        C998   1.420       .  A
C998        C999   1.422       .  A
C999       H1003   1.066       .  S
C999       C1000   1.392       .  A
C1000      H1004   1.085       .  S
C1005      H1015   1.084       .  S
C1005      C1006   1.397       .  A
C1005      C1010   1.393       .  A
C1006      C1011   1.475       .  S
C1006      C1007   1.403       .  A
C1007      H1012   1.083       .  S
C1007      C1008   1.407       .  A
C1008      H1013   1.083       .  S
C1008      C1009   1.411       .  A
C1009      C1010   1.419       .  A
C1010      H1014   1.081       .  S
C1011      C1016   1.397       .  A
C1011      C1020   1.402       .  A
C1016      H1021   1.084       .  S
C1016      C1017   1.389       .  A
C1017      H1022   1.083       .  S
C1017      C1018   1.415       .  A
C1018      C1019   1.416       .  A
C1019      H1023   1.082       .  S
C1019      C1020   1.408       .  A
C1020      H1024   1.083   1_455  S
C1025      H1035   1.082       .  S
C1025      C1026   1.401       .  A
C1025      C1030   1.386       .  A
C1026      C1031   1.494       .  S
C1026      C1027   1.406       .  A
C1027      H1032   1.079       .  S
C1027      C1028   1.407       .  A
C1028      H1033   1.083       .  S
C1028      C1029   1.412       .  A
C1029      C1030   1.418       .  A
C1030      H1034   1.076       .  S
C1031      C1036   1.401       .  A
C1031      C1040   1.402       .  A
C1036      H1041   1.083       .  S
C1036      C1037   1.394       .  A
C1037      H1042   1.067       .  S
C1037      C1038   1.416       .  A
C1038      C1039   1.423       .  A
C1039      H1043   1.082       .  S
C1039      C1040   1.404       .  A
C1040      H1044   1.082       .  S
C1045      H1055   1.083       .  S
C1045      C1046   1.399       .  A
C1045      C1050   1.409       .  A
C1046      C1051   1.479       .  S
C1046      C1047   1.394       .  A
C1047      H1052   1.084       .  S
C1047      C1048   1.390       .  A
C1048      H1053   1.072       .  S
C1048      C1049   1.419       .  A
C1049      C1050   1.424       .  A
C1050      H1054   1.079       .  S
C1051      C1056   1.397       .  A
C1051      C1060   1.403       .  A
C1056      H1061   1.084       .  S
C1056      C1057   1.390       .  A
C1057      H1062   1.081       .  S
C1057      C1058   1.419       .  A
C1058      C1059   1.417       .  A
C1059      H1063   1.082       .  S
C1059      C1060   1.408       .  A
C1060      H1064   1.077       .  S
C1065      H1075   1.084       .  S
C1065      C1066   1.395       .  A
C1065      C1070   1.392       .  A
C1066      C1071   1.483       .  S
C1066      C1067   1.404       .  A
C1067      H1072   1.083   1_545  S
C1067      C1068   1.409       .  A
C1068      H1073   1.083       .  S
C1068      C1069   1.421       .  A
C1069      C1070   1.419       .  A
C1070      H1074   1.067       .  S
C1071      C1076   1.399       .  A
C1071      C1080   1.404       .  A
C1076      H1081   1.084       .  S
C1076      C1077   1.385       .  A
C1077      H1082   1.083       .  S
C1077      C1078   1.413       .  A
C1078      C1079   1.417       .  A
C1079      H1083   1.081       .  S
C1079      C1080   1.412       .  A
C1080      H1084   1.079   1_545  S
C1085      H1095   1.083   1_455  S
C1085      C1086   1.406       .  A
C1085      C1090   1.409       .  A
C1086      C1091   1.484       .  S
C1086      C1087   1.396       .  A
C1087      H1092   1.084       .  S
C1087      C1088   1.394       .  A
C1088      H1093   1.077       .  S
C1088      C1089   1.420       .  A
C1089      C1090   1.417       .  A
C1090      H1094   1.082       .  S
C1091      C1096   1.406       .  A
C1091      C1100   1.394       .  A
C1096      H1101   1.083   1_455  S
C1096      C1097   1.410       .  A
C1097      H1102   1.081       .  S
C1097      C1098   1.420       .  A
C1098      C1099   1.422       .  A
C1099      H1103   1.075       .  S
C1099      C1100   1.393       .  A
C1100      H1104   1.084       .  S
C1105      H1115   1.083       .  S
C1105      C1106   1.403       .  A
C1105      C1110   1.408       .  A
C1106      C1111   1.482       .  S
C1106      C1107   1.395       .  A
C1107      H1112   1.084       .  S
C1107      C1108   1.393       .  A
C1108      H1113   1.076       .  S
C1108      C1109   1.422       .  A
C1109      C1110   1.421       .  A
C1110      H1114   1.080       .  S
C1111      C1116   1.405       .  A
C1111      C1120   1.397       .  A
C1116      H1121   1.083       .  S
C1116      C1117   1.408       .  A
C1117      H1122   1.082       .  S
C1117      C1118   1.419       .  A
C1118      C1119   1.419       .  A
C1119      H1123   1.075       .  S
C1119      C1120   1.393       .  A
C1120      H1124   1.084       .  S
C1125      H1135   1.083       .  S
C1125      C1126   1.403       .  A
C1125      C1130   1.405       .  A
C1126      C1131   1.478       .  S
C1126      C1127   1.396       .  A
C1127      H1132   1.084       .  S
C1127      C1128   1.392       .  A
C1128      H1133   1.076       .  S
C1128      C1129   1.418       .  A
C1129      C1130   1.418       .  A
C1130      H1134   1.082       .  S
C1131      C1136   1.393       .  A
C1131      C1140   1.403       .  A
C1136      H1141   1.084       .  S
C1136      C1137   1.391       .  A
C1137      H1142   1.075       .  S
C1137      C1138   1.423       .  A
C1138      C1139   1.419       .  A
C1139      H1143   1.080       .  S
C1139      C1140   1.407       .  A
C1140      H1144   1.083   1_545  S
C1145      H1155   1.083       .  S
C1145      C1146   1.404       .  A
C1145      C1150   1.407       .  A
C1146      C1151   1.476       .  S
C1146      C1147   1.395       .  A
C1147      H1152   1.085       .  S
C1147      C1148   1.390       .  A
C1148      H1153   1.076       .  S
C1148      C1149   1.420       .  A
C1149      C1150   1.417       .  A
C1150      H1154   1.083       .  S
C1151      C1156   1.405       .  A
C1151      C1160   1.395       .  A
C1156      H1161   1.083       .  S
C1156      C1157   1.406       .  A
C1157      H1162   1.083       .  S
C1157      C1158   1.417       .  A
C1158      C1159   1.419       .  A
C1159      H1163   1.077       .  S
C1159      C1160   1.390       .  A
C1160      H1164   1.084       .  S
C1165      H1175   1.083       .  S
C1165      C1166   1.401       .  A
C1165      C1170   1.400       .  A
C1166      C1171   1.472       .  S
C1166      C1167   1.397       .  A
C1167      H1172   1.084       .  S
C1167      C1168   1.391       .  A
C1168      H1173   1.077       .  S
C1168      C1169   1.417       .  A
C1169      C1170   1.416       .  A
C1170      H1174   1.083       .  S
C1171      C1176   1.395       .  A
C1171      C1180   1.400       .  A
C1176      H1181   1.084       .  S
C1176      C1177   1.390       .  A
C1177      H1182   1.076       .  S
C1177      C1178   1.419       .  A
C1178      C1179   1.421       .  A
C1179      H1183   1.079       .  S
C1179      C1180   1.401       .  A
C1180      H1184   1.083       .  S
C1185      H1195   1.083       .  S
C1185      C1186   1.404       .  A
C1185      C1190   1.407       .  A
C1186      C1191   1.473       .  S
C1186      C1187   1.394       .  A
C1187      H1192   1.085       .  S
C1187      C1188   1.387       .  A
C1188      H1193   1.077       .  S
C1188      C1189   1.419       .  A
C1189      C1190   1.418       .  A
C1190      H1194   1.083       .  S
C1191      C1196   1.403       .  A
C1191      C1200   1.396       .  A
C1196      H1201   1.083       .  S
C1196      C1197   1.404       .  A
C1197      H1202   1.082       .  S
C1197      C1198   1.417       .  A
C1198      C1199   1.418       .  A
C1199      H1203   1.077       .  S
C1199      C1200   1.390       .  A
C1200      H1204   1.085       .  S
