geometry optimzed in LAMMPS
_audit_creation_date              2020-11-30 
_audit_creation_method            'lammps2cif' 
_symmetry_space_group_name_H-M    'P1' 
_symmetry_Int_Tables_number       1 
_symmetry_cell_setting            triclinic 
loop_ 
_symmetry_equiv_pos_as_xyz 
  x,y,z 
_cell_length_a                    48.85179231 
_cell_length_b                    36.14934792672704 
_cell_length_c                    31.44898470372048 
_cell_angle_alpha                 90.86267625650676 
_cell_angle_beta                  90.32494650835079 
_cell_angle_gamma                 88.69326659536533 
loop_ 
_atom_site_label 
_atom_site_type_symbol 
_atom_site_fract_x 
_atom_site_fract_y 
_atom_site_fract_z 
_atom_site_charge 
Zr1        Zr  0.60120011  0.33480939  0.33434375     2.17500
O2          O  0.57279782  0.30657495  0.38786980    -0.51400
O3          O  0.59621231  0.28598228  0.28150181    -0.74600
O4          O  0.55190716  0.34677913  0.31887479    -0.81400
O5          O  0.66634915  0.29641829  0.38801484    -0.83200
O6          O  0.54750679  0.40619983  0.29640493    -0.78800
O7          O  0.62140783  0.28389038  0.37545930    -0.90400
O8          O  0.62104015  0.30213160  0.22418846    -0.76400
O9          O  0.59922967  0.36915983  0.27032029    -0.85900
O10         O  0.64487448  0.32656967  0.30110189    -0.85600
O11         O  0.59276916  0.39784820  0.35653792    -0.72300
O12         O  0.63519529  0.35800339  0.38271622    -0.84500
Zr13       Zr  0.66743234  0.45035128  0.30554828     2.26400
Zr14       Zr  0.59199437  0.43217269  0.29209842     2.06300
Zr15       Zr  0.67848054  0.35139317  0.34836233     2.10000
Zr16       Zr  0.64264637  0.36104603  0.23744814     1.78800
O17         O  0.70457328  0.35343867  0.41450222    -0.93300
O18         O  0.61519923  0.37268484  0.17384903    -0.41100
O19         O  0.67602079  0.38667389  0.28459243    -0.77700
O20         O  0.63476721  0.42508939  0.25573973    -0.96400
O21         O  0.62457724  0.45724942  0.34079962    -0.89700
O22         O  0.67085249  0.41488740  0.36930798    -0.92500
C23         C  0.60571035  0.27983206  0.24409034     1.01200
C24         C  0.64501238  0.27655307  0.39220848     1.14100
C25         C  0.53757401  0.37514555  0.30639757     1.04900
O26         O  0.57070075  0.43750967  0.22221080    -0.94700
O27         O  0.60026033  0.49180173  0.26306310    -0.90400
O28         O  0.64624915  0.49849821  0.25993067    -0.83600
C29         C  0.62142573  0.50909247  0.25147858     1.11600
O30         O  0.60230048  0.39629025  0.46257821    -0.96700
Zr31       Zr  0.62751006  0.42091120  0.40317985     1.88900
O32         O  0.67144875  0.49971273  0.36005299    -0.73300
O33         O  0.56037774  0.47548508  0.32760825    -0.52600
O34         O  0.59064382  0.46135564  0.42958045    -0.97300
O35         O  0.65524028  0.40630855  0.46568110    -0.54500
O36         O  0.64890741  0.47887082  0.41706260    -0.73800
C37         C  0.66259859  0.50354844  0.39836100     0.98500
O38         O  0.70188625  0.48587348  0.26919219    -0.62700
O39         O  0.70609218  0.30058382  0.31810726    -0.57500
O40         O  0.71624199  0.43317623  0.30303679    -0.94100
O41         O  0.72260733  0.37415851  0.32606261    -0.92600
O42         O  0.68117713  0.32104055  0.21631280    -0.92900
O43         O  0.66928090  0.38148844  0.17732461    -0.91700
C44         C  0.73139829  0.40436629  0.31057099     1.17300
H45         H  0.64903671  0.30068880  0.29567256     0.33300
H46         H  0.63439117  0.43841697  0.22937451     0.44100
H47         H  0.68555057  0.42357041  0.38727697     0.37700
H48         H  0.57528942  0.40019368  0.37067181     0.34100
H49         H  0.59624002  0.36704275  0.18210617     0.25900
H50         H  0.57184533  0.49619360  0.33744814     0.31900
H51         H  0.59315621  0.48517010  0.41512347     0.37800
H52         H  0.68127108  0.30028770  0.23647731     0.32200
H53         H  0.72148125  0.29711557  0.33837824     0.31100
H54         H  0.71749195  0.33199080  0.41247044     0.32800
H55         H  0.67284906  0.41869503  0.46140086     0.31800
H56         H  0.68086398  0.40125586  0.18930418     0.35800
H57         H  0.69888878  0.48074025  0.23853131     0.28500
H58         H  0.55858102  0.29305778  0.37180833     0.32700
H59         H  0.59156388  0.37595871  0.44990605     0.35600
H60         H  0.69507023  0.27813437  0.32107426     0.28200
H61         H  0.69651295  0.51224260  0.27340746     0.41100
H62         H  0.55564331  0.45603156  0.22612244     0.31100
H63         H  0.61500782  0.39988594  0.17051935     0.38700
H64         H  0.65976004  0.37955698  0.46266481     0.30600
H65         H  0.54897544  0.48603966  0.30444178     0.30600
H66         H  0.56287523  0.32756390  0.40187977     0.30900
C67         C  0.58895339  0.13722826  0.15188357    -0.02600
C68         C  0.66604365  0.14508964  0.50031121    -0.02600
Zr69       Zr  0.90809840  0.22107708  0.09096716     2.17500
O70         O  0.93699332  0.25241741  0.14301826    -0.51400
O71         O  0.91261903  0.26768918  0.03674278    -0.74600
O72         O  0.95731857  0.21008853  0.07681090    -0.81400
O73         O  0.84195695  0.26396896  0.13698515    -0.83200
O74         O  0.96176127  0.15238080  0.04743198    -0.78800
O75         O  0.88769874  0.27319659  0.13059493    -0.90400
O76         O  0.88504701  0.25796530  0.48426120    -0.76400
O77         O  0.91011987  0.18533775  0.02680006    -0.85900
O78         O  0.86397653  0.22762933  0.05826806    -0.85600
O79         O  0.91801440  0.15889861  0.11321895    -0.72300
O80         O  0.87502905  0.19883094  0.14036190    -0.84500
Zr81       Zr  0.84321505  0.10562776  0.06357427     2.26400
Zr82       Zr  0.91844330  0.12300957  0.04862856     2.06300
Zr83       Zr  0.83127937  0.20370214  0.10618418     2.10000
Zr84       Zr  0.86644936  0.19203414  0.99414062     1.78800
O85         O  0.80769109  0.19732878  0.17363421    -0.93300
O86         O  0.89527759  0.18656163  0.43349770    -0.41100
O87         O  0.83375078  0.16799566  0.04184694    -0.77700
O88         O  0.87527744  0.12882439  0.01305699    -0.96400
O89         O  0.88656789  0.09936646  0.09757512    -0.89700
O90         O  0.83993653  0.14124878  0.12806383    -0.92500
C91         C  0.90073434  0.27462574  0.00117970     1.01200
C92         C  0.86351075  0.28310338  0.14297553     1.14100
C93         C  0.97148112  0.18324440  0.05982922     1.04900
O94         O  0.94049410  0.11755663  0.48145963    -0.94700
O95         O  0.90899308  0.06234055  0.02040259    -0.90400
O96         O  0.86323851  0.05346549  0.02409383    -0.83600
C97         C  0.88762199  0.04322594  0.01363067     1.11600
O98         O  0.90615353  0.16828103  0.21986225    -0.96700
Zr99       Zr  0.88416235  0.13630337  0.16062355     1.88900
O100        O  0.83726947  0.06082264  0.12009188    -0.73300
O101        O  0.95000749  0.08286932  0.08790428    -0.52600
O102        O  0.92401238  0.10316634  0.18909145    -0.97300
O103        O  0.85551285  0.14194874  0.22371470    -0.54500
O104        O  0.86987299  0.07348949  0.16957058    -0.73800
C105        C  0.85169811  0.05264597  0.15304974     0.98500
O106        O  0.81680911  0.06843528  0.52019953    -0.62700
O107        O  0.79667095  0.24973881  0.08604656    -0.57500
O108        O  0.79495187  0.12256927  0.05740074    -0.94100
O109        O  0.78855917  0.18317495  0.07509444    -0.92600
O110        O  0.82786414  0.23549928  0.47474438    -0.92900
O111        O  0.84169835  0.16959333  0.43706499    -0.91700
C112        C  0.78013264  0.15220142  0.06024799     1.17300
H113        H  0.85926079  0.25324523  0.05296743     0.33300
H114        H  0.87569637  0.11894510  0.48932354     0.44100
H115        H  0.82552695  0.13235896  0.14586672     0.37700
H116        H  0.93574443  0.15751044  0.12693189     0.34100
H117        H  0.89555502  0.21079681  0.41927495     0.25900
H118        H  0.93897021  0.07294906  0.11124408     0.31900
H119        H  0.91738953  0.09146957  0.21527070     0.37800
H120        H  0.83354603  0.24683380  0.44781370     0.32200
H121        H  0.79133359  0.26276340  0.11275047     0.31100
H122        H  0.81467370  0.21762960  0.19186179     0.32800
H123        H  0.83944004  0.12645463  0.21786358     0.31800
H124        H  0.82710257  0.15542379  0.45068770     0.35800
H125        H  0.80201225  0.05891941  0.53813021     0.28500
H126        H  0.94932593  0.26788097  0.12626730     0.32700
H127        H  0.91388407  0.19064349  0.20717685     0.35600
H128        H  0.80668347  0.26804283  0.06940459     0.28200
H129        H  0.80753673  0.08416497  0.49870233     0.41100
H130        H  0.95479094  0.09820905  0.48638648     0.31100
H131        H  0.91412654  0.18284518  0.44459573     0.38700
H132        H  0.84822426  0.16771627  0.22350123     0.30600
H133        H  0.95360768  0.06130074  0.06880741     0.30600
H134        H  0.94900033  0.23278605  0.15518114     0.30900
C135        C  0.91903352  0.41662563  0.40901533    -0.02600
C136        C  0.84626437  0.41635981  0.25226672    -0.02600
Zr137      Zr  0.40746645  0.08552696  0.10073163     2.17500
O138        O  0.43754273  0.05019166  0.05277701    -0.51400
O139        O  0.41327207  0.03930651  0.15662874    -0.74600
O140        O  0.45654120  0.10088414  0.10986170    -0.81400
O141        O  0.34281627  0.05088528  0.04669503    -0.83200
O142        O  0.45660390  0.15220846  0.15187098    -0.78800
O143        O  0.38799095  0.03662995  0.05466433    -0.90400
O144        O  0.38600203  0.05849501  0.21107688    -0.76400
O145        O  0.40781224  0.12314604  0.16391465    -0.85900
O146        O  0.36307233  0.08152090  0.13224044    -0.85600
O147        O  0.41631125  0.14757539  0.07823061    -0.72300
O148        O  0.37426073  0.10912080  0.05061004    -0.84500
Zr149      Zr  0.34013727  0.20640846  0.12346630     2.26400
Zr150      Zr  0.41438220  0.18530798  0.14151329     2.06300
Zr151      Zr  0.33032924  0.10763068  0.08349974     2.10000
Zr152      Zr  0.36422973  0.11826451  0.19540031     1.78800
O153        O  0.30483387  0.11254018  0.01698017    -0.93300
O154        O  0.39222285  0.13115090  0.25803631    -0.41100
O155        O  0.33177074  0.14457012  0.14654978    -0.77700
O156        O  0.37133566  0.18149004  0.17633361    -0.96400
O157        O  0.38345580  0.20946797  0.09025300    -0.89700
O158        O  0.33853949  0.16908850  0.06003172    -0.92500
C159        C  0.40306751  0.03520185  0.19389116     1.01200
C160        C  0.36394883  0.03016005  0.03932174     1.14100
C161        C  0.46898792  0.12652446  0.13090605     1.04900
O162        O  0.44410358  0.20792810  0.19808654    -0.94700
O163        O  0.40386083  0.24330718  0.17755851    -0.90400
O164        O  0.35819888  0.25505425  0.17102355    -0.83600
C165        C  0.38224333  0.26304776  0.18485841     1.11600
O166        O  0.41012651  0.13964522  0.97309666    -0.96700
Zr167      Zr  0.38300685  0.17038614  0.02852834     1.88900
O168        O  0.33982059  0.25097133  0.06535443    -0.73300
O169        O  0.43583836  0.22410740  0.08920404    -0.52600
O170        O  0.42132991  0.20583263  0.00309435    -0.97300
O171        O  0.35602363  0.15671213  0.96506144    -0.54500
O172        O  0.36576009  0.23040524  0.01002496    -0.73800
C173        C  0.35063468  0.25481736  0.02857240     0.98500
O174        O  0.30560755  0.25519475  0.13563796    -0.62700
O175        O  0.29933858  0.06043915  0.10777367    -0.57500
O176        O  0.29272148  0.18818112  0.13682407    -0.94100
O177        O  0.28646776  0.13060479  0.10971669    -0.92600
O178        O  0.32531958  0.08179680  0.21617608    -0.92900
O179        O  0.33836790  0.14396747  0.25532804    -0.91700
C180        C  0.27762317  0.16007484  0.12891158     1.17300
H181        H  0.35874388  0.05616810  0.13805621     0.33300
H182        H  0.37074220  0.19541738  0.20275038     0.44100
H183        H  0.32428835  0.17794853  0.04106967     0.37700
H184        H  0.43406049  0.14880509  0.06502421     0.34100
H185        H  0.41011481  0.11877638  0.25213000     0.25900
H186        H  0.44125781  0.24665525  0.10506678     0.31900
H187        H  0.41472701  0.21731567  0.97643080     0.37800
H188        H  0.30976843  0.09155327  0.19904009     0.32200
H189        H  0.29675591  0.04331926  0.08329244     0.31100
H190        H  0.28716353  0.10076077  0.02275173     0.32800
H191        H  0.35058753  0.13010319  0.46672789     0.31800
H192        H  0.32309348  0.15825080  0.24213142     0.35800
H193        H  0.31526819  0.27891838  0.13413024     0.28500
H194        H  0.45186929  0.03870427  0.07099459     0.32700
H195        H  0.41855771  0.11157716  0.49118011     0.35600
H196        H  0.30998113  0.04584703  0.12878455     0.28200
H197        H  0.29378545  0.25504462  0.10992847     0.41100
H198        H  0.44125677  0.19091622  0.22196680     0.31100
H199        H  0.39599906  0.15788450  0.25666425     0.38700
H200        H  0.35005913  0.13098359  0.96880198     0.30600
H201        H  0.45317507  0.21114526  0.08136964     0.30600
H202        H  0.44713348  0.06886217  0.03599561     0.30900
C203        C  0.41812070  0.39344775  0.28224294    -0.02600
C204        C  0.34051609  0.39279846  0.43238740    -0.02600
Zr205      Zr  0.09983058  0.47372927  0.35518516     2.17500
O206        O  0.07303540  0.51819156  0.31358432    -0.51400
O207        O  0.09483168  0.01966930  0.42080145    -0.74600
O208        O  0.04923031  0.46579230  0.36079930    -0.81400
O209        O  0.16487179  0.00310524  0.30722389    -0.83200
O210        O  0.04272085  0.40803224  0.38582564    -0.78800
O211        O  0.12105687  0.02227138  0.31885145    -0.90400
O212        O  0.12394037  0.00180031  0.47371576    -0.76400
O213        O  0.09799518  0.43903962  0.41882145    -0.85900
O214        O  0.14489766  0.47291888  0.38548834    -0.85600
O215        O  0.08719013  0.41299197  0.33165840    -0.72300
O216        O  0.13077056  0.44572013  0.30376325    -0.84500
Zr217      Zr  0.15975862  0.34780080  0.37727987     2.26400
Zr218      Zr  0.08608397  0.37812413  0.39574740     2.06300
Zr219      Zr  0.17538955  0.44295848  0.33576537     2.10000
Zr220      Zr  0.14294202  0.43827253  0.44873002     1.78800
O221        O  0.19651213  0.43631128  0.26601165    -0.93300
O222        O  0.11573672  0.43146422  0.51272291    -0.41100
O223        O  0.17355000  0.40828921  0.39969025    -0.77700
O224        O  0.13015277  0.37701616  0.42936571    -0.96400
O225        O  0.11559448  0.34875795  0.34503290    -0.89700
O226        O  0.16314190  0.38213650  0.31325147    -0.92500
C227        C  0.10680532  0.02451642  0.45683515     1.01200
C228        C  0.14501405  0.02642468  0.30280944     1.14100
C229        C  0.03376819  0.43906548  0.37211700     1.04900
O230        O  0.05964730  0.37940427  0.46118191    -0.94700
O231        O  0.09288009  0.32073506  0.43169570    -0.90400
O232        O  0.13724366  0.30254778  0.42098427    -0.83600
C233        C  0.11327132  0.29843701  0.43649605     1.11600
O234        O  0.09487300  0.41696193  0.22504335    -0.96700
Zr235      Zr  0.11847781  0.38470342  0.28255344     1.88900
O236        O  0.16138606  0.30240129  0.31909023    -0.73300
O237        O  0.05637834  0.33393637  0.36014487    -0.52600
O238        O  0.07673836  0.35621485  0.25662938    -0.97300
O239        O  0.14848646  0.38782778  0.22110155    -0.54500
O240        O  0.13029244  0.32080740  0.26994741    -0.73800
C241        C  0.14696569  0.29679852  0.28540523     0.98500
O242        O  0.18598028  0.29680740  0.40902357    -0.62700
O243        O  0.20775892  0.48880986  0.36096150    -0.57500
O244        O  0.20867890  0.35956202  0.38653259    -0.94100
O245        O  0.21897558  0.41279500  0.35327768    -0.92600
O246        O  0.18557859  0.46905707  0.46563426    -0.92900
O247        O  0.16741802  0.41164212  0.50901613    -0.91700
C248        C  0.22566661  0.38380799  0.37432193     1.17300
H249        H  0.14943779  0.00067317  0.39823554     0.33300
H250        H  0.13014591  0.36369807  0.45570179     0.44100
H251        H  0.17657604  0.37116844  0.29418541     0.37700
H252        H  0.06967314  0.41347360  0.31730989     0.34100
H253        H  0.11507490  0.40033107  0.02359452     0.25900
H254        H  0.06767579  0.31102015  0.35654173     0.31900
H255        H  0.07450895  0.33430887  0.27469685     0.37800
H256        H  0.19811059  0.95958731  0.46322026     0.32200
H257        H  0.21282925  0.48108994  0.39007375     0.31100
H258        H  0.21619371  0.44067596  0.27117394     0.32800
H259        H  0.14974363  0.41454055  0.21507515     0.31800
H260        H  0.17128922  0.38560365  0.50038301     0.35800
H261        H  0.20097316  0.29047080  0.38894642     0.28500
H262        H  0.05909167  0.03233395  0.34078377     0.32700
H263        H  0.09033066  0.44180756  0.23707601     0.35600
H264        H  0.22236675  0.98889437  0.34896086     0.28200
H265        H  0.19506749  0.30726365  0.43459923     0.41100
H266        H  0.06068415  0.40519729  0.47200241     0.31100
H267        H  0.10915248  0.40578554  0.51119263     0.38700
H268        H  0.13781865  0.37749099  0.19701972     0.30600
H269        H  0.04264962  0.32776097  0.38180931     0.30600
H270        H  0.06121122  0.50325460  0.29465151     0.30900
C271        C  0.09010256  0.16425804  0.03565062    -0.02600
C272        C  0.16267645  0.15484137  0.19165901    -0.02600
C273        C  0.10965589  0.16342439  0.07564114    -0.00300
C274        C  0.10595339  0.13443186  0.10456491    -0.12100
C275        C  0.12367821  0.12777393  0.13909997     0.02000
C276        C  0.14410820  0.15387063  0.15038313    -0.00400
C277        C  0.14864612  0.18167391  0.12036571    -0.12100
C278        C  0.13315191  0.18575301  0.08319269     0.01900
H279        H  0.08957373  0.11523462  0.09868511     0.14800
H280        H  0.16497668  0.20098025  0.12616952     0.14800
C281        C  0.14463914  0.21115620  0.05347344     0.36500
C282        C  0.12148693  0.09176720  0.15774025     0.36400
N283        N  0.15495786  0.23125298  0.03048248    -0.43900
N284        N  0.11940429  0.06229753  0.17109236    -0.43900
C285        C  0.14929040  0.26018799  0.26302312    -0.00300
C286        C  0.16697236  0.23262540  0.27925240    -0.12100
C287        C  0.17071837  0.19838311  0.25828063     0.02000
C288        C  0.15632906  0.19046060  0.21955304    -0.00400
C289        C  0.13660227  0.21709355  0.20646798    -0.12100
C290        C  0.13374971  0.25168035  0.22615179     0.01900
H291        H  0.17873637  0.23815680  0.30791099     0.14800
H292        H  0.12325901  0.21191034  0.17991961     0.14800
C293        C  0.11517127  0.27785411  0.20598935     0.36500
C294        C  0.19146507  0.17371727  0.27564691     0.36400
N295        N  0.10052688  0.29866601  0.18920255    -0.43900
N296        N  0.20848727  0.15480518  0.28993221    -0.43900
C297        C  0.15029343  0.05995139  0.27688017    -0.00300
C298        C  0.12914255  0.08620418  0.27016326    -0.12100
C299        C  0.13277310  0.11698142  0.24415689     0.02000
C300        C  0.15796602  0.12171264  0.22211006    -0.00400
C301        C  0.17957723  0.09671122  0.23207151    -0.12100
C302        C  0.17614063  0.06649262  0.25842402     0.01900
H303        H  0.10939208  0.08259526  0.28492239     0.14800
H304        H  0.20002236  0.10084305  0.22063526     0.14800
C305        C  0.20024005  0.04351521  0.26599868     0.36500
C306        C  0.10949339  0.14196904  0.23936555     0.36400
N307        N  0.21982809  0.02560935  0.27162887    -0.43900
N308        N  0.09048653  0.16142460  0.23604787    -0.43900
C309        C  0.10862612  0.26619359  0.46240322    -0.00300
C310        C  0.10965505  0.23137968  0.44291127    -0.12100
C311        C  0.10252932  0.19992180  0.46515829     0.02000
C312        C  0.09738916  0.20258508  0.50995970    -0.00400
C313        C  0.09420055  0.23865405  0.52773522    -0.12100
C314        C  0.09994331  0.27006133  0.50469589     0.01900
H315        H  0.11412384  0.22919949  0.40916097     0.14800
H316        H  0.08606727  0.23593392  0.05662026     0.14800
C317        C  0.09771600  0.30580193  0.52573703     0.36500
C318        C  0.09684867  0.16790400  0.43881569     0.36400
N319        N  0.09589465  0.33429096  0.54288313    -0.43900
N320        N  0.09194287  0.14301190  0.41668716    -0.43900
C321        C  0.10221643  0.05990585  0.47938791    -0.00300
C322        C  0.12423473  0.08363322  0.48308922    -0.12100
C323        C  0.12129536  0.11846650  0.50258257     0.02000
C324        C  0.09527601  0.13098851  0.51848421    -0.00400
C325        C  0.07400124  0.10475471  0.51794546    -0.12100
C326        C  0.07712090  0.07007094  0.49800532     0.01900
H327        H  0.14386352  0.07511464  0.46968350     0.14800
H328        H  0.05456485  0.10387366  0.03204113     0.14800
C329        C  0.05480817  0.04460189  0.49937008     0.36500
C330        C  0.14530591  0.14095860  0.50267489     0.36400
N331        N  0.03691462  0.02426464  0.50122210    -0.43900
N332        N  0.16522675  0.15756662  0.50096278    -0.43900
C333        C  0.30976791  0.38727292  0.41776194    -0.00300
C334        C  0.30330589  0.37526279  0.37560304    -0.12100
C335        C  0.27624483  0.37401711  0.36049445     0.02000
C336        C  0.25444445  0.38004184  0.38868426    -0.00400
C337        C  0.26020525  0.38516661  0.43184964    -0.12100
C338        C  0.28720927  0.38844701  0.44674949     0.01900
H339        H  0.31924548  0.36727941  0.35343232     0.14800
H340        H  0.24330252  0.38856789  0.45394316     0.14800
C341        C  0.28994796  0.39554008  0.49175424     0.36500
C342        C  0.27133037  0.36651593  0.31591046     0.36400
N343        N  0.29060208  0.40588269  0.03399682    -0.43900
N344        N  0.26737677  0.36072716  0.28013372    -0.43900
C345        C  0.40011250  0.39441572  0.32394569    -0.00300
C346        C  0.37376864  0.41107766  0.32135498    -0.12100
C347        C  0.35634692  0.41490148  0.35641759     0.02000
C348        C  0.36097624  0.39335493  0.39346872    -0.00400
C349        C  0.38667049  0.37445845  0.39551653    -0.12100
C350        C  0.40612395  0.37533495  0.36258995     0.01900
H351        H  0.36714939  0.42350350  0.29179817     0.14800
H352        H  0.39228224  0.35934569  0.42384023     0.14800
C353        C  0.43126528  0.35462998  0.37015453     0.36500
C354        C  0.33339162  0.44028664  0.35116567     0.36400
N355        N  0.45118937  0.33769682  0.37682113    -0.43900
N356        N  0.31524849  0.46046379  0.34420441    -0.43900
C357        C  0.24842853  0.16049648  0.14371406    -0.00300
C358        C  0.23191875  0.13012042  0.13349937    -0.12100
C359        C  0.20476498  0.12799692  0.14761828     0.02000
C360        C  0.19306023  0.15625501  0.17440176    -0.00400
C361        C  0.20926289  0.18796274  0.18120479    -0.12100
C362        C  0.23643772  0.18981940  0.16782916     0.01900
H363        H  0.24017222  0.10754067  0.11404673     0.14800
H364        H  0.20100575  0.21262336  0.19651172     0.14800
C365        C  0.25103818  0.22250277  0.18050168     0.36500
C366        C  0.18968161  0.09612444  0.13361197     0.36400
N367        N  0.26184338  0.24904620  0.19191145    -0.43900
N368        N  0.17828237  0.07023497  0.12162902    -0.43900
C369        C  0.34453301  0.36056769  0.96559460    -0.00300
C370        C  0.34307273  0.32661113  0.94261683    -0.12100
C371        C  0.34451535  0.29234884  0.96216226     0.02000
C372        C  0.34677905  0.29046324  0.00665104    -0.00400
C373        C  0.34825681  0.32339049  0.03039486    -0.12100
C374        C  0.34874189  0.35518199  0.50527615     0.01900
H375        H  0.34069706  0.32681275  0.90834315     0.14800
H376        H  0.35069171  0.32189837  0.06467898     0.14800
C377        C  0.34894416  0.38656160  0.53408464     0.36500
C378        C  0.34314366  0.25964037  0.93533225     0.36400
N379        N  0.34890885  0.41064113  0.55878366    -0.43900
N380        N  0.34221292  0.23374004  0.91334497    -0.43900
C381        C  0.34665283  0.43022195  0.45682892    -0.00300
C382        C  0.37231785  0.43818891  0.97875688    -0.12100
C383        C  0.37975194  0.46936518  0.00315171     0.02000
C384        C  0.36043439  0.49827485  0.01071601    -0.00400
C385        C  0.33472032  0.49571098  0.99063521    -0.12100
C386        C  0.32725166  0.46489637  0.96612042     0.01900
H387        H  0.38863059  0.41279210  0.46962316     0.14800
H388        H  0.31995506  0.51847017  0.99361754     0.14800
C389        C  0.30124767  0.46893466  0.94450251     0.36500
C390        C  0.40701206  0.46978166  0.02106225     0.36400
N391        N  0.28021156  0.47371334  0.92808376    -0.43900
N392        N  0.42892717  0.46965711  0.03523776    -0.43900
C393        C  0.41294491  0.50197107  0.21570786    -0.00300
C394        C  0.42478164  0.47060017  0.19528456    -0.12100
C395        C  0.42794881  0.43633068  0.21621418     0.02000
C396        C  0.41768423  0.43178684  0.25832057    -0.00400
C397        C  0.40916810  0.46482344  0.27959606    -0.12100
C398        C  0.40661691  0.49890166  0.25934330     0.01900
H399        H  0.43096306  0.47242789  0.16233338     0.14800
H400        H  0.40424068  0.46477216  0.31295365     0.14800
C401        C  0.39817035  0.03054909  0.28854697     0.36500
C402        C  0.44053599  0.40615282  0.19230226     0.36400
N403        N  0.39184012  0.05584320  0.30955323    -0.43900
N404        N  0.45061800  0.38249639  0.17224166    -0.43900
C405        C  0.40484476  0.36078582  0.25627420    -0.00300
C406        C  0.40903635  0.32474067  0.27242677    -0.12100
C407        C  0.40026869  0.29311484  0.25107037     0.02000
C408        C  0.38604944  0.29621530  0.21233995    -0.00400
C409        C  0.37831536  0.33159176  0.19832806    -0.12100
C410        C  0.38666068  0.36374464  0.22049816     0.01900
H411        H  0.42081309  0.32070344  0.30107824     0.14800
H412        H  0.36609876  0.33415026  0.16956105     0.14800
C413        C  0.37447829  0.39828702  0.20674683     0.36500
C414        C  0.40622774  0.25761134  0.26996325     0.36400
N415        N  0.36428924  0.42559106  0.19519931    -0.43900
N416        N  0.41097576  0.22945741  0.28573587    -0.43900
C417        C  0.94832033  0.42604382  0.39170968    -0.00300
C418        C  0.96011711  0.46137932  0.39943976    -0.12100
C419        C  0.98751216  0.46853984  0.38960684     0.02000
C420        C  0.00343912  0.44129715  0.36871184    -0.00400
C421        C  0.99035208  0.40968068  0.35291730    -0.12100
C422        C  0.96331367  0.40184398  0.36378726     0.01900
H423        H  0.94849701  0.48381182  0.41417578     0.14800
H424        H  0.00231846  0.38896649  0.33534446     0.14800
C425        C  0.95368159  0.36600782  0.35060302     0.36500
C426        C  0.99812624  0.00375335  0.40408339     0.36400
N427        N  0.94761071  0.33638110  0.34050605    -0.43900
N428        N  0.00710980  0.03207408  0.41352419    -0.43900
C429        C  0.90027999  0.41442211  0.36783240    -0.00300
C430        C  0.89891338  0.44614758  0.34207858    -0.12100
C431        C  0.88204277  0.44909818  0.30585842     0.02000
C432        C  0.86552770  0.41887466  0.29248402    -0.00400
C433        C  0.86608525  0.38776445  0.31919701    -0.12100
C434        C  0.88438547  0.38386315  0.35351910     0.01900
H435        H  0.91071903  0.46998621  0.35153770     0.14800
H436        H  0.85382617  0.36419611  0.31023567     0.14800
C437        C  0.88814765  0.34637663  0.36800538     0.36500
C438        C  0.88152120  0.48507112  0.28667131     0.36400
N439        N  0.89093804  0.31582308  0.37801964    -0.43900
N440        N  0.87896102  0.01759178  0.28220732    -0.43900
C441        C  0.84857999  0.01636390  0.17329939    -0.00300
C442        C  0.87237934  0.99565672  0.18171583    -0.12100
C443        C  0.87107015  0.46055885  0.19952752     0.02000
C444        C  0.84694073  0.45040087  0.22169004    -0.00400
C445        C  0.82289501  0.97168318  0.21276216    -0.12100
C446        C  0.82341421  0.00309876  0.18698894     0.01900
H447        H  0.89174662  0.00501664  0.16948699     0.14800
H448        H  0.80297213  0.96203605  0.22148023     0.14800
C449        C  0.79795406  0.02164174  0.17577995     0.36500
C450        C  0.89678321  0.44033105  0.20102432     0.36400
N451        N  0.77757066  0.03640492  0.16645701    -0.43900
N452        N  0.91834807  0.42647378  0.19970650    -0.43900
C453        C  0.85385083  0.38222571  0.22213446    -0.00300
C454        C  0.83605594  0.37549094  0.18719092    -0.12100
C455        C  0.83885025  0.34402997  0.16081185     0.02000
C456        C  0.86047042  0.31833264  0.16759395    -0.00400
C457        C  0.87982762  0.32624669  0.19905817    -0.12100
C458        C  0.87735806  0.35783932  0.22528793     0.01900
H459        H  0.81891978  0.39440215  0.18153572     0.14800
H460        H  0.89735004  0.30755852  0.20299065     0.14800
C461        C  0.90128844  0.36539616  0.25049446     0.36500
C462        C  0.81975781  0.33985224  0.12602379     0.36400
N463        N  0.92121643  0.37154286  0.26900242    -0.43900
N464        N  0.80435363  0.33753104  0.09809069    -0.43900
C465        C  0.89234259  0.01127324  0.49407766    -0.00300
C466        C  0.91547880  0.99012067  0.50518063    -0.12100
C467        C  0.92342966  0.95868910  0.48164556     0.02000
C468        C  0.90869563  0.44842879  0.44011596    -0.00400
C469        C  0.88306123  0.96690439  0.43745944    -0.12100
C470        C  0.87537164  0.99861643  0.46088307     0.01900
H471        H  0.92891261  0.99610384  0.02753275     0.14800
H472        H  0.86977897  0.46011710  0.40800989     0.14800
C473        C  0.85095490  0.01876196  0.44786848     0.36500
C474        C  0.94823023  0.94021417  0.49582559     0.36400
N475        N  0.83142439  0.03450908  0.43653084    -0.43900
N476        N  0.96683215  0.42335442  0.50651740    -0.43900
C477        C  0.90689610  0.31536358  0.48341683    -0.00300
C478        C  0.93339615  0.32328300  0.47071816    -0.12100
C479        C  0.93909647  0.35589237  0.44900052     0.02000
C480        C  0.91725364  0.38099076  0.43698678    -0.00400
C481        C  0.89105706  0.37382188  0.45422998    -0.12100
C482        C  0.88579883  0.34165115  0.47671975     0.01900
H483        H  0.94989268  0.30376233  0.47813934     0.14800
H484        H  0.87402817  0.39279733  0.44818026     0.14800
C485        C  0.85717605  0.33027813  0.99024474     0.36500
C486        C  0.96784861  0.36239132  0.44352460     0.36400
N487        N  0.83523107  0.32555151  0.00237619    -0.43900
N488        N  0.99121670  0.36628374  0.44056527    -0.43900
C489        C  0.05884942  0.17179176  0.04577051    -0.00300
C490        C  0.04076127  0.17028652  0.01032104    -0.12100
C491        C  0.01272273  0.17734026  0.01380549     0.02000
C492        C  0.00126676  0.18638677  0.05355861    -0.00400
C493        C  0.01869788  0.19101573  0.08857808    -0.12100
C494        C  0.04719465  0.18465251  0.08510834     0.01900
H495        H  0.04962389  0.17000196  0.48342057     0.14800
H496        H  0.00989092  0.19861773  0.11916924     0.14800
C497        C  0.06308050  0.19409720  0.12214790     0.36500
C498        C  0.99597282  0.17484819  0.97584724     0.36400
N499        N  0.07494074  0.20248060  0.15256782    -0.43900
N500        N  0.98342917  0.17600292  0.45030286    -0.43900
C501        C  0.69645461  0.14477318  0.01534302    -0.00300
C502        C  0.71296074  0.17476722  0.00380748    -0.12100
C503        C  0.73982983  0.17820675  0.01879666     0.02000
C504        C  0.75178639  0.15031626  0.04402233    -0.00400
C505        C  0.73702436  0.11859081  0.05175570    -0.12100
C506        C  0.70991759  0.11535620  0.03803813     0.01900
H507        H  0.70590154  0.19838445  0.48212126     0.14800
H508        H  0.74652457  0.09646789  0.07003439     0.14800
C509        C  0.69679846  0.08200842  0.05082004     0.36500
C510        C  0.75497737  0.21008477  0.00628220     0.36400
N511        N  0.68811799  0.05443682  0.06243809    -0.43900
N512        N  0.76546189  0.24086750  0.49957001    -0.43900
C513        C  0.55776451  0.13358876  0.14080372    -0.00300
C514        C  0.54008402  0.16466179  0.14521757    -0.12100
C515        C  0.51209715  0.16301413  0.13906305     0.02000
C516        C  0.49946105  0.12867878  0.13127799    -0.00400
C517        C  0.51646862  0.09729188  0.12484564    -0.12100
C518        C  0.54526621  0.09950370  0.12845825     0.01900
H519        H  0.54739323  0.19146544  0.15401440     0.14800
H520        H  0.50731107  0.07093516  0.11728953     0.14800
C521        C  0.56114574  0.06628985  0.11894573     0.36500
C522        C  0.49762240  0.19834635  0.14069831     0.36400
N523        N  0.57342658  0.03930273  0.11118408    -0.43900
N524        N  0.48770800  0.22768465  0.14252297    -0.43900
C525        C  0.64616771  0.14541636  0.04242708    -0.00300
C526        C  0.61768598  0.14432625  0.03476936    -0.12100
C527        C  0.59857601  0.13957481  0.06747426     0.02000
C528        C  0.60741065  0.13857507  0.11104179    -0.00400
C529        C  0.63534408  0.14559388  0.11846364    -0.12100
C530        C  0.65436845  0.14935682  0.08596617     0.01900
H531        H  0.61042731  0.14440321  0.00208418     0.14800
H532        H  0.64244864  0.14857231  0.15110178     0.14800
C533        C  0.68083094  0.16162915  0.10035616     0.36500
C534        C  0.57042700  0.13836265  0.05348774     0.36400
N535        N  0.70144070  0.17237254  0.11337885    -0.43900
N536        N  0.54815990  0.13797825  0.04070914    -0.43900
C537        C  0.76094382  0.40568518  0.29933423    -0.00300
C538        C  0.77587621  0.43722149  0.30947774    -0.12100
C539        C  0.80333992  0.44044994  0.29703865     0.02000
C540        C  0.81668394  0.41195384  0.27200682    -0.00400
C541        C  0.80198772  0.37878697  0.26639671    -0.12100
C542        C  0.77440022  0.37617586  0.27772499     0.01900
H543        H  0.76586767  0.45981545  0.32690457     0.14800
H544        H  0.81151267  0.35435240  0.25229782     0.14800
C545        C  0.75980734  0.34403481  0.26312684     0.36500
C546        C  0.81616600  0.47474764  0.30860693     0.36400
N547        N  0.74820057  0.31857117  0.25040633    -0.40300
N548        N  0.82332578  0.00594329  0.32220289    -0.43900
C549        C  0.66003271  0.03991306  0.42456088    -0.00300
C550        C  0.64352818  0.04597266  0.46025990    -0.12100
C551        C  0.64571061  0.07707222  0.48648761     0.02000
C552        C  0.66280391  0.10714992  0.47491938    -0.00400
C553        C  0.67999058  0.10021156  0.43915296    -0.12100
C554        C  0.67866973  0.06758709  0.41412996     0.01900
H555        H  0.63987082  0.51922371  0.47273251     0.14800
H556        H  0.69451259  0.12096571  0.43032327     0.14800
C557        C  0.69684831  0.06343710  0.37831399     0.36500
C558        C  0.63327496  0.07176180  0.52735833     0.36400
N559        N  0.71142297  0.06016202  0.34955551    -0.43900
N560        N  0.62403719  0.06198811  0.05997773    -0.43900
C561        C  0.65749947  0.17984127  0.47211539    -0.00300
C562        C  0.65143539  0.17627562  0.42795694    -0.12100
C563        C  0.64844483  0.20716820  0.40148964     0.02000
C564        C  0.64787227  0.24312066  0.41896673    -0.00400
C565        C  0.65108521  0.24746912  0.46283308    -0.12100
C566        C  0.65605845  0.21697732  0.48924753     0.01900
H567        H  0.64970863  0.14964457  0.41260209     0.14800
H568        H  0.65060462  0.27524064  0.47648017     0.14800
C569        C  0.66100104  0.22610190  0.53339968     0.36500
C570        C  0.64898079  0.20141503  0.35600187     0.36400
N571        N  0.66411133  0.23549282  0.06958749    -0.43900
N572        N  0.65043302  0.19688938  0.31957824    -0.43900
C573        C  0.59731202  0.10298123  0.18097439    -0.00300
C574        C  0.62019567  0.07928623  0.17122056    -0.12100
C575        C  0.62864662  0.04986461  0.19725060     0.02000
C576        C  0.61365817  0.04146881  0.23368917    -0.00400
C577        C  0.58997985  0.06280764  0.24266304    -0.12100
C578        C  0.58151128  0.09252472  0.21706855     0.01900
H579        H  0.63162344  0.08207438  0.14240620     0.14800
H580        H  0.57765230  0.05587302  0.26989374     0.14800
C581        C  0.55649804  0.11182898  0.22975944     0.36500
C582        C  0.65589725  0.53183814  0.17880741     0.36400
N583        N  0.53665193  0.12725849  0.24057530    -0.43900
N584        N  0.67548913  0.51553268  0.16856066    -0.43900
C585        C  0.59966724  0.24424171  0.22226138    -0.00300
C586        C  0.59926323  0.24324171  0.17793362    -0.12100
C587        C  0.59530246  0.21035006  0.15507728     0.02000
C588        C  0.59412559  0.17536584  0.17641737    -0.00400
C589        C  0.59654909  0.17723614  0.22138933    -0.12100
C590        C  0.59651155  0.21090295  0.24401596     0.01900
H591        H  0.60089275  0.26894223  0.16078177     0.14800
H592        H  0.59792986  0.15293488  0.24041074     0.14800
C593        C  0.59190612  0.21013444  0.28933418     0.36500
C594        C  0.59058434  0.21535829  0.11011326     0.36400
N595        N  0.58729600  0.20934754  0.32537048    -0.43900
N596        N  0.58666650  0.22155583  0.07456312    -0.43900
C597        C  0.50727127  0.37422537  0.30437166    -0.00300
C598        C  0.49277589  0.40222030  0.32644007    -0.12100
C599        C  0.46463812  0.40846447  0.32031950     0.02000
C600        C  0.44949826  0.38596939  0.29128407    -0.00400
C601        C  0.46479098  0.35810177  0.26861421    -0.12100
C602        C  0.49300565  0.35184673  0.27532121     0.01900
H603        H  0.50383557  0.42014019  0.34822233     0.14800
H604        H  0.45528684  0.34164828  0.24395616     0.14800
C605        C  0.50709819  0.32387755  0.24988701     0.36500
C606        C  0.45227195  0.43763613  0.34603716     0.36400
N607        N  0.51814100  0.30136538  0.22931960    -0.43900
N608        N  0.44330679  0.46094600  0.36780936    -0.43900
Zr609      Zr  0.59960517  0.33300802  0.83729564     2.17500
O610        O  0.57161084  0.30360829  0.89051632    -0.51400
O611        O  0.59387965  0.28497851  0.78288808    -0.74600
O612        O  0.55008483  0.34549966  0.82444943    -0.81400
O613        O  0.66495168  0.29397836  0.88922754    -0.83200
O614        O  0.54539309  0.40496914  0.80231456    -0.78800
O615        O  0.61990392  0.28163169  0.87742971    -0.90400
O616        O  0.61793745  0.30215860  0.72524811    -0.76400
O617        O  0.59719708  0.36764175  0.77353758    -0.85900
O618        O  0.64312522  0.32495090  0.80352518    -0.85600
O619        O  0.59133994  0.39606268  0.86035516    -0.72300
O620        O  0.63403187  0.35617939  0.88533277    -0.84500
Zr621      Zr  0.66569280  0.44796834  0.80843115     2.26400
Zr622      Zr  0.58996514  0.43051099  0.79592672     2.06300
Zr623      Zr  0.67718485  0.34939145  0.85056300     2.10000
Zr624      Zr  0.64052632  0.35968226  0.74018037     1.78800
O625        O  0.70294834  0.35374215  0.91687142    -0.93300
O626        O  0.61422681  0.37099367  0.67542448    -0.41100
O627        O  0.67431856  0.38456736  0.78687783    -0.77700
O628        O  0.63256438  0.42341424  0.75909810    -0.96400
O629        O  0.62300415  0.45497434  0.84414824    -0.89700
O630        O  0.66957335  0.41267255  0.87219226    -0.92500
C631        C  0.60278772  0.27959207  0.74488256     1.01200
C632        C  0.64362164  0.27417535  0.89368044     1.14100
C633        C  0.53556975  0.37394544  0.81272160     1.04900
O634        O  0.56803146  0.43469554  0.72637763    -0.94700
O635        O  0.59832849  0.49008781  0.76654488    -0.90400
O636        O  0.64433967  0.49736261  0.76525126    -0.83600
C637        C  0.61959488  0.50773223  0.75605807     1.11600
O638        O  0.60342385  0.38863197  0.96471538    -0.96700
Zr639      Zr  0.62642459  0.41910234  0.90670941     1.88900
O640        O  0.66916811  0.49868717  0.86093646    -0.73300
O641        O  0.55908331  0.47559321  0.83017424    -0.52600
O642        O  0.58907922  0.45684706  0.93643452    -0.97300
O643        O  0.65564319  0.41130157  0.96928905    -0.54500
O644        O  0.64447739  0.48021312  0.91699188    -0.73800
C645        C  0.65870382  0.50429247  0.89796729     0.98500
O646        O  0.69990305  0.47840182  0.76597455    -0.62700
O647        O  0.70568877  0.29769952  0.82454178    -0.57500
O648        O  0.71489022  0.43295527  0.80905270    -0.94100
O649        O  0.72102731  0.37233193  0.82592842    -0.92600
O650        O  0.67806569  0.31701827  0.72176571    -0.92900
O651        O  0.66751165  0.38216475  0.68149533    -0.91700
C652        C  0.73002063  0.40357443  0.81343341     1.17300
H653        H  0.64710483  0.29911670  0.79749071     0.33300
H654        H  0.63218981  0.43698060  0.73290118     0.44100
H655        H  0.68443818  0.42153915  0.88967613     0.37700
H656        H  0.57400126  0.39824768  0.87491913     0.34100
H657        H  0.61939391  0.35022425  0.65596785     0.25900
H658        H  0.55263360  0.46323704  0.85603116     0.31900
H659        H  0.59601576  0.46551115  0.96443148     0.37800
H660        H  0.67092787  0.30170308  0.69799236     0.32200
H661        H  0.71384206  0.28649337  0.85034633     0.31100
H662        H  0.71857825  0.33611072  0.91305516     0.32800
H663        H  0.64779216  0.42880120  0.99073429     0.31800
H664        H  0.68011567  0.40001391  0.69491781     0.35800
H665        H  0.69583203  0.47080651  0.73628101     0.28500
H666        H  0.55890157  0.28778896  0.87416686     0.32700
H667        H  0.61065994  0.36281377  0.96399038     0.35600
H668        H  0.69281648  0.27901950  0.81360169     0.28200
H669        H  0.69546404  0.50523783  0.76756516     0.41100
H670        H  0.58329631  0.43561450  0.70587758     0.31100
H671        H  0.59504592  0.36617366  0.68323852     0.38700
H672        H  0.67339060  0.42208558  0.96187946     0.30600
H673        H  0.57111389  0.49528020  0.84115267     0.30600
H674        H  0.55992294  0.32376446  0.90277757     0.30900
C675        C  0.58782256  0.13926216  0.64682245    -0.02600
C676        C  0.66542217  0.14361393  0.00258076    -0.02600
Zr677      Zr  0.90815446  0.22588981  0.59336798     2.17500
O678        O  0.93542505  0.25470666  0.64938103    -0.51400
O679        O  0.91309291  0.27304170  0.53959598    -0.74600
O680        O  0.95764398  0.21540830  0.58027085    -0.81400
O681        O  0.84119518  0.26963718  0.63503975    -0.83200
O682        O  0.96241201  0.15728348  0.55191765    -0.78800
O683        O  0.88705760  0.27867098  0.63073249    -0.90400
O684        O  0.88397676  0.25318457  0.98196845    -0.76400
O685        O  0.91050651  0.19022482  0.52916186    -0.85900
O686        O  0.86412359  0.23232386  0.56034525    -0.85600
O687        O  0.91789758  0.16351391  0.61489882    -0.72300
O688        O  0.87501802  0.20289653  0.64222689    -0.84500
Zr689      Zr  0.84359787  0.10973216  0.56536306     2.26400
Zr690      Zr  0.91891640  0.12770560  0.55039888     2.06300
Zr691      Zr  0.83127994  0.20773421  0.60764051     2.10000
Zr692      Zr  0.86688754  0.19693843  0.49624953     1.78800
O693        O  0.81031169  0.20130797  0.67710998    -0.93300
O694        O  0.89651706  0.18096873  0.93352053    -0.41100
O695        O  0.83411198  0.17206273  0.54330726    -0.77700
O696        O  0.87567069  0.13364235  0.51523426    -0.96400
O697        O  0.88702499  0.10343290  0.59907445    -0.89700
O698        O  0.84013967  0.14531269  0.62974185    -0.92500
C699        C  0.90154045  0.27970216  0.50364964     1.01200
C700        C  0.86265081  0.28884634  0.64176132     1.14100
C701        C  0.97203993  0.18831003  0.56417425     1.04900
O702        O  0.94140302  0.11020490  0.98132179    -0.94700
O703        O  0.90938604  0.06643936  0.52303327    -0.90400
O704        O  0.86357612  0.05754669  0.52609264    -0.83600
C705        C  0.88799481  0.04733844  0.51587696     1.11600
O706        O  0.91016345  0.16766977  0.72067197    -0.96700
Zr707      Zr  0.88438018  0.14013978  0.66217852     1.88900
O708        O  0.83688960  0.06520714  0.62227932    -0.73300
O709        O  0.95129577  0.08755887  0.58801135    -0.52600
O710        O  0.92401142  0.10469403  0.68777269    -0.97300
O711        O  0.85421427  0.14841249  0.72318708    -0.54500
O712        O  0.86876132  0.07800039  0.67288239    -0.73800
C713        C  0.85059013  0.05728113  0.65608863     0.98500
O714        O  0.81545233  0.06361868  0.02081747    -0.62700
O715        O  0.79350797  0.25077391  0.59261801    -0.57500
O716        O  0.79514877  0.12523363  0.55997112    -0.94100
O717        O  0.78928887  0.18660081  0.57352581    -0.92600
O718        O  0.82877704  0.23011261  0.96686074    -0.92900
O719        O  0.83990653  0.16400023  0.93684613    -0.91700
C720        C  0.78059387  0.15514755  0.56033363     1.17300
H721        H  0.85931218  0.25787829  0.55482166     0.33300
H722        H  0.87527019  0.11410332  0.98718598     0.44100
H723        H  0.82585555  0.13635124  0.64775177     0.37700
H724        H  0.93558330  0.16213619  0.62877531     0.34100
H725        H  0.88792542  0.19523687  0.91015513     0.25900
H726        H  0.93982740  0.06900267  0.60179550     0.31900
H727        H  0.91713608  0.09025244  0.71183042     0.37800
H728        H  0.82377248  0.24684487  0.99091618     0.32200
H729        H  0.78948292  0.26384915  0.61982937     0.31100
H730        H  0.79079156  0.19678346  0.67073603     0.32800
H731        H  0.85668871  0.17427973  0.73301546     0.31800
H732        H  0.82937089  0.14453989  0.95081108     0.35800
H733        H  0.80060701  0.05524247  0.03943471     0.28500
H734        H  0.94817337  0.27094969  0.63449753     0.32700
H735        H  0.91634969  0.19152831  0.70952701     0.35600
H736        H  0.80145362  0.26956808  0.57404913     0.28200
H737        H  0.80630579  0.07877432  0.99866519     0.41100
H738        H  0.93162389  0.12611795  0.96060242     0.31100
H739        H  0.91337830  0.19452181  0.94056747     0.38700
H740        H  0.86269414  0.13305354  0.74572916     0.30600
H741        H  0.96112363  0.07351173  0.56529840     0.30600
H742        H  0.94714604  0.23445951  0.66088119     0.30900
C743        C  0.91751147  0.41392446  0.91173234    -0.02600
C744        C  0.84510618  0.41982698  0.75476879    -0.02600
Zr745      Zr  0.40664274  0.08313200  0.60225451     2.17500
O746        O  0.43772580  0.04297896  0.56114569    -0.51400
O747        O  0.41107093  0.03801120  0.65930436    -0.74600
O748        O  0.45563866  0.10001745  0.60902768    -0.81400
O749        O  0.34211136  0.04832364  0.54636568    -0.83200
O750        O  0.45589430  0.14933771  0.65396026    -0.78800
O751        O  0.38739619  0.03480823  0.55472351    -0.90400
O752        O  0.38367853  0.05793696  0.71318370    -0.76400
O753        O  0.40636275  0.12100342  0.66537692    -0.85900
O754        O  0.36187973  0.07982793  0.63246826    -0.85600
O755        O  0.41603380  0.14497830  0.57964489    -0.72300
O756        O  0.37410936  0.10618559  0.55075743    -0.84500
Zr757      Zr  0.34028076  0.20519198  0.62186534     2.26400
Zr758      Zr  0.41391995  0.18304509  0.64278744     2.06300
Zr759      Zr  0.32978135  0.10552480  0.58255713     2.10000
Zr760      Zr  0.36210203  0.11700541  0.69515247     1.78800
O761        O  0.30492695  0.10843086  0.51522651    -0.93300
O762        O  0.38707409  0.13008485  0.76076651    -0.41100
O763        O  0.33060493  0.14353116  0.64506216    -0.77700
O764        O  0.37033558  0.17990522  0.67601013    -0.96400
O765        O  0.38400845  0.20701535  0.58989307    -0.89700
O766        O  0.33888780  0.16678025  0.55914249    -0.92500
C767        C  0.40055649  0.03429030  0.69637139     1.01200
C768        C  0.36342984  0.02781050  0.53931139     1.14100
C769        C  0.46819998  0.12524791  0.63057424     1.04900
O770        O  0.44357019  0.20574239  0.69941962    -0.94700
O771        O  0.40345709  0.24094086  0.67996117    -0.90400
O772        O  0.35810731  0.25356213  0.67083352    -0.83600
C773        C  0.38185684  0.26102812  0.68651175     1.11600
O774        O  0.40878698  0.13115093  0.47498201    -0.96700
Zr775      Zr  0.38349642  0.16713757  0.52855065     1.88900
O776        O  0.34111610  0.24847579  0.56184641    -0.73300
O777        O  0.43524012  0.22084653  0.58930011    -0.52600
O778        O  0.42340203  0.19769121  0.50064155    -0.97300
O779        O  0.35327466  0.15716185  0.46776033    -0.54500
O780        O  0.36845820  0.22768508  0.50813242    -0.73800
C781        C  0.35272105  0.25210612  0.52546474     0.98500
O782        O  0.30668495  0.25516751  0.63376023    -0.62700
O783        O  0.30254966  0.05422333  0.60692496    -0.57500
O784        O  0.29265240  0.18741650  0.63411669    -0.94100
O785        O  0.28551445  0.13053867  0.60554510    -0.92600
O786        O  0.32324947  0.07829041  0.71001099    -0.92900
O787        O  0.33394045  0.14141151  0.75321084    -0.91700
C788        C  0.27709438  0.15995317  0.62536531     1.17300
H789        H  0.35729787  0.05458769  0.63841249     0.33300
H790        H  0.36939972  0.19380617  0.70241093     0.44100
H791        H  0.32497643  0.17561252  0.53959007     0.37700
H792        H  0.43374460  0.14630216  0.56636344     0.34100
H793        H  0.40500107  0.11711405  0.75721952     0.25900
H794        H  0.44035566  0.24392899  0.60434553     0.31900
H795        H  0.41729951  0.20795096  0.47306191     0.37800
H796        H  0.30721231  0.09176873  0.69792578     0.32200
H797        H  0.29017167  0.06452412  0.62914106     0.31100
H798        H  0.28672031  0.11931133  0.52235330     0.32800
H799        H  0.33905777  0.17200730  0.96794964     0.31800
H800        H  0.32181654  0.16026221  0.73979039     0.35800
H801        H  0.31672069  0.27849401  0.63098348     0.28500
H802        H  0.45169442  0.03367919  0.58152403     0.32700
H803        H  0.41364716  0.11434542  0.98378185     0.35600
H804        H  0.29032818  0.04828685  0.58266325     0.28200
H805        H  0.29451744  0.25467706  0.60846098     0.41100
H806        H  0.44041365  0.18904598  0.72349291     0.31100
H807        H  0.39138595  0.15665143  0.75937134     0.38700
H808        H  0.36452871  0.16215473  0.44249212     0.30600
H809        H  0.45271823  0.20805111  0.58187384     0.30600
H810        H  0.44763782  0.05951180  0.54200909     0.30900
C811        C  0.41609898  0.39109930  0.78767884    -0.02600
C812        C  0.33942999  0.39613502  0.93828006    -0.02600
Zr813      Zr  0.09852070  0.47206045  0.85951977     2.17500
O814        O  0.07242764  0.51581973  0.81602804    -0.51400
O815        O  0.09395959  0.01535291  0.91357218    -0.74600
O816        O  0.04780469  0.46398547  0.86419963    -0.81400
O817        O  0.16563696  0.00097830  0.80798624    -0.83200
O818        O  0.04131056  0.40609808  0.88879463    -0.78800
O819        O  0.12064478  0.01706392  0.81332818    -0.90400
O820        O  0.12039347  0.99555124  0.96899690    -0.76400
O821        O  0.09606224  0.43751140  0.92333800    -0.85900
O822        O  0.14338019  0.47152477  0.89116377    -0.85600
O823        O  0.08631347  0.41100721  0.83583682    -0.72300
O824        O  0.13005568  0.44392600  0.80901856    -0.84500
Zr825      Zr  0.15928067  0.34706187  0.88350358     2.26400
Zr826      Zr  0.08481819  0.37649281  0.90022182     2.06300
Zr827      Zr  0.17431463  0.44226293  0.84153965     2.10000
Zr828      Zr  0.14064361  0.43661215  0.95450319     1.78800
O829        O  0.19605262  0.43317010  0.77250288    -0.93300
O830        O  0.11177107  0.42653489  0.01599222    -0.41100
O831        O  0.17200106  0.40809602  0.90557401    -0.77700
O832        O  0.12852752  0.37506629  0.93480791    -0.96400
O833        O  0.11531516  0.34750724  0.85055480    -0.89700
O834        O  0.16287454  0.38109607  0.81930757    -0.92500
C835        C  0.10477750  0.01933259  0.95070604     1.01200
C836        C  0.14528147  0.02284371  0.80065963     1.14100
C837        C  0.03230468  0.43714265  0.87512186     1.04900
O838        O  0.06440884  0.38134533  0.97055225    -0.94700
O839        O  0.09084077  0.31594079  0.92865075    -0.90400
O840        O  0.13596316  0.29969594  0.92268898    -0.83600
C841        C  0.11133539  0.29405791  0.93450085     1.11600
O842        O  0.09738739  0.41593818  0.72883239    -0.96700
Zr843      Zr  0.11839837  0.38267539  0.78782676     1.88900
O844        O  0.16244704  0.30061851  0.82651255    -0.73300
O845        O  0.05226249  0.33142966  0.87356773    -0.52600
O846        O  0.07584290  0.35398314  0.76609036    -0.97300
O847        O  0.14480048  0.38281784  0.72225299    -0.54500
O848        O  0.13194652  0.31900079  0.77644417    -0.73800
C849        C  0.14829634  0.29487280  0.79258418     0.98500
O850        O  0.18530245  0.29956253  0.92193463    -0.62700
O851        O  0.20689036  0.48859228  0.86485461    -0.57500
O852        O  0.20806085  0.35999570  0.89324807    -0.94100
O853        O  0.21794693  0.41319530  0.85958440    -0.92600
O854        O  0.17898466  0.47205915  0.98149513    -0.92900
O855        O  0.16935744  0.40645633  0.00795578    -0.91700
C856        C  0.22479873  0.38459751  0.88108738     1.17300
H857        H  0.14658174  0.99535263  0.89619173     0.33300
H858        H  0.12808791  0.36090721  0.96058925     0.44100
H859        H  0.17659364  0.37013790  0.80070607     0.37700
H860        H  0.06892262  0.41139328  0.82114471     0.34100
H861        H  0.09910026  0.44706270  0.50806172     0.25900
H862        H  0.03680954  0.33267099  0.89382040     0.31900
H863        H  0.07492120  0.33147598  0.78352589     0.37800
H864        H  0.17282524  0.97930754  0.00251430     0.32200
H865        H  0.21379430  0.48016239  0.89281436     0.31100
H866        H  0.18528927  0.44905921  0.75290185     0.32800
H867        H  0.16102602  0.36660277  0.72752628     0.31800
H868        H  0.18346196  0.39243018  0.99145575     0.35800
H869        H  0.20070975  0.29176864  0.90327613     0.28500
H870        H  0.05740586  0.02492205  0.82915263     0.32700
H871        H  0.09307426  0.44095955  0.74056984     0.35600
H872        H  0.21709803  0.99287126  0.85291448     0.28200
H873        H  0.19380475  0.31229691  0.94662305     0.41100
H874        H  0.04839322  0.36507558  0.96902764     0.31100
H875        H  0.12034345  0.44087084  0.03938686     0.38700
H876        H  0.15218066  0.40802507  0.72075153     0.30600
H877        H  0.04473014  0.34203279  0.84701255     0.30600
H878        H  0.06131841  0.50045467  0.79646912     0.30900
C879        C  0.09099073  0.17012484  0.53998611    -0.02600
C880        C  0.16378393  0.15460407  0.69509456    -0.02600
C881        C  0.11028373  0.16824504  0.58027176    -0.00300
C882        C  0.10618649  0.13854176  0.60820764    -0.12100
C883        C  0.12385018  0.13039462  0.64240463     0.02000
C884        C  0.14472340  0.15553039  0.65442792    -0.00400
C885        C  0.14921969  0.18457948  0.62599730    -0.12100
C886        C  0.13386210  0.19008900  0.58898924     0.01900
H887        H  0.08952098  0.11993855  0.60172487     0.14800
H888        H  0.16560192  0.20358212  0.63281638     0.14800
C889        C  0.14564603  0.21650819  0.56081849     0.36500
C890        C  0.12096734  0.09412130  0.66009171     0.36400
N891        N  0.15641623  0.23752076  0.53949049    -0.43900
N892        N  0.11833621  0.06447099  0.67263585    -0.43900
C893        C  0.15054281  0.25814220  0.77031135    -0.00300
C894        C  0.16960836  0.23117912  0.78428491    -0.12100
C895        C  0.17296021  0.19698768  0.76272372     0.02000
C896        C  0.15800544  0.18959288  0.72442093    -0.00400
C897        C  0.13714727  0.21547249  0.71385152    -0.12100
C898        C  0.13328614  0.24884546  0.73564461     0.01900
H899        H  0.18222606  0.23683897  0.81200438     0.14800
H900        H  0.12292669  0.20994039  0.68854213     0.14800
C901        C  0.11080823  0.27218947  0.72106811     0.36500
C902        C  0.19295687  0.17109851  0.77980962     0.36400
N903        N  0.09268375  0.29024073  0.70868352    -0.43900
N904        N  0.20897794  0.15074092  0.79423725    -0.43900
C905        C  0.15084756  0.05674658  0.77556243    -0.00300
C906        C  0.13049194  0.08454869  0.77220521    -0.12100
C907        C  0.13422457  0.11605194  0.74746815     0.02000
C908        C  0.15901474  0.12061055  0.72422161    -0.00400
C909        C  0.18006881  0.09397586  0.73105965    -0.12100
C910        C  0.17616020  0.06226090  0.75487517     0.01900
H911        H  0.11119365  0.08152333  0.78853795     0.14800
H912        H  0.20025587  0.09740885  0.71824972     0.14800
C913        C  0.19891807  0.03601526  0.75620353     0.36500
C914        C  0.11132593  0.14195958  0.74536581     0.36400
N915        N  0.21749301  0.01556774  0.75649909    -0.43900
N916        N  0.09254228  0.16203048  0.74439436    -0.43900
C917        C  0.10610310  0.26110476  0.95881037    -0.00300
C918        C  0.10785014  0.22642602  0.93889775    -0.12100
C919        C  0.10116504  0.19452251  0.96084524     0.02000
C920        C  0.09588662  0.19683748  0.00557777    -0.00400
C921        C  0.09196515  0.23271249  0.02359033    -0.12100
C922        C  0.09683704  0.26440064  0.00079340     0.01900
H923        H  0.11268175  0.22463349  0.90526311     0.14800
H924        H  0.08833811  0.24215565  0.56077354     0.14800
C925        C  0.09294151  0.29996982  0.02174879     0.36500
C926        C  0.09599233  0.16234063  0.93450841     0.36400
N927        N  0.08965261  0.32835623  0.03865897    -0.43900
N928        N  0.09134538  0.13722066  0.91257321    -0.43900
C929        C  0.10061497  0.05469670  0.97341552    -0.00300
C930        C  0.12280802  0.07816528  0.97702689    -0.12100
C931        C  0.12034223  0.11252619  0.99784245     0.02000
C932        C  0.09452247  0.12498794  0.01454259    -0.00400
C933        C  0.07337341  0.09857064  0.01484906    -0.12100
C934        C  0.07609117  0.06424701  0.99402933     0.01900
H935        H  0.14222665  0.06969686  0.96287052     0.14800
H936        H  0.05484422  0.11035533  0.53405564     0.14800
C937        C  0.05395454  0.03855194  0.99615804     0.36500
C938        C  0.14468695  0.13434436  0.99889823     0.36400
N939        N  0.03625119  0.01795656  0.99845604    -0.43900
N940        N  0.16505382  0.15003985  0.99817275    -0.43900
C941        C  0.30876069  0.39074600  0.92371896    -0.00300
C942        C  0.30229164  0.37886162  0.88159059    -0.12100
C943        C  0.27526700  0.37673387  0.86690273     0.02000
C944        C  0.25355325  0.38168453  0.89544642    -0.00400
C945        C  0.25939458  0.38734117  0.93855184    -0.12100
C946        C  0.28640202  0.39156775  0.95304338     0.01900
H947        H  0.31815075  0.37124422  0.85916707     0.14800
H948        H  0.24257308  0.39037686  0.96083484     0.14800
C949        C  0.28958778  0.39922768  0.99792536     0.36500
C950        C  0.27033679  0.36954170  0.82226093     0.36400
N951        N  0.29000853  0.40162816  0.52797592    -0.43900
N952        N  0.26645347  0.36408061  0.78640551    -0.43900
C953        C  0.39813526  0.39302088  0.82920363    -0.00300
C954        C  0.37238214  0.41138145  0.82689040    -0.12100
C955        C  0.35565783  0.41716799  0.86242692     0.02000
C956        C  0.36004751  0.39603652  0.89970585    -0.00400
C957        C  0.38529351  0.37604630  0.90187404    -0.12100
C958        C  0.40412875  0.37454545  0.86820836     0.01900
H959        H  0.36583304  0.42370922  0.79726711     0.14800
H960        H  0.39090592  0.36153635  0.93062200     0.14800
C961        C  0.42863516  0.35237147  0.87560221     0.36500
C962        C  0.33343247  0.44377787  0.85759326     0.36400
N963        N  0.44809805  0.33446756  0.88227288    -0.43900
N964        N  0.31580048  0.46493866  0.85133555    -0.43900
C965        C  0.24804488  0.16078907  0.64097427    -0.00300
C966        C  0.23094179  0.13113848  0.63044034    -0.12100
C967        C  0.20437756  0.12858949  0.64699980     0.02000
C968        C  0.19387362  0.15575207  0.67647505    -0.00400
C969        C  0.21061242  0.18680818  0.68381856    -0.12100
C970        C  0.23712248  0.18918713  0.66765398     0.01900
H971        H  0.23835449  0.10933128  0.60911328     0.14800
H972        H  0.20318000  0.21078070  0.70134630     0.14800
C973        C  0.25214658  0.22159596  0.67997069     0.36500
C974        C  0.18864206  0.09742361  0.63256806     0.36400
N975        N  0.26329569  0.24797166  0.69103658    -0.43900
N976        N  0.17673462  0.07207723  0.62024609    -0.43900
C977        C  0.34588321  0.35714214  0.45983369    -0.00300
C978        C  0.34471610  0.32278254  0.43749532    -0.12100
C979        C  0.34618178  0.28867424  0.45794695     0.02000
C980        C  0.34890651  0.28744185  0.50249193    -0.00400
C981        C  0.35016208  0.32074679  0.52541563    -0.12100
C982        C  0.34767517  0.35812007  0.01091667     0.01900
H983        H  0.34217404  0.32255364  0.40324223     0.14800
H984        H  0.35251716  0.31982742  0.55974570     0.14800
C985        C  0.34988304  0.38913738  0.04003334     0.36500
C986        C  0.34354822  0.25538881  0.43235740     0.36400
N987        N  0.35180844  0.41275140  0.06509387    -0.43900
N988        N  0.34125932  0.22889052  0.41165206    -0.43900
C989        C  0.34543701  0.43353691  0.96220303    -0.00300
C990        C  0.37349213  0.43484135  0.47378036    -0.12100
C991        C  0.38083582  0.46579940  0.49896954     0.02000
C992        C  0.36146865  0.49453001  0.50743237    -0.00400
C993        C  0.33575689  0.49194160  0.48706957    -0.12100
C994        C  0.32848793  0.46150586  0.46141485     0.01900
H995        H  0.38739548  0.41601260  0.97495460     0.14800
H996        H  0.32089186  0.51452206  0.49051474     0.14800
C997        C  0.30284047  0.46587265  0.43890469     0.36500
C998        C  0.40814368  0.46626976  0.51658451     0.36400
N999        N  0.28212873  0.47075053  0.42155628    -0.43900
N1000       N  0.43015564  0.46613797  0.53037194    -0.43900
C1001       C  0.41188114  0.49884971  0.71946999    -0.00300
C1002       C  0.42269981  0.46679338  0.69912944    -0.12100
C1003       C  0.42558639  0.43275818  0.72061797     0.02000
C1004       C  0.41603621  0.42920706  0.76322703    -0.00400
C1005       C  0.40878221  0.46290615  0.78434487    -0.12100
C1006       C  0.40657032  0.49678014  0.76350977     0.01900
H1007       H  0.42811065  0.46786428  0.66578972     0.14800
H1008       H  0.40437487  0.46350277  0.81787232     0.14800
C1009       C  0.39198843  0.02778832  0.79040072     0.36500
C1010       C  0.43669170  0.40156494  0.69670570     0.36400
N1011       N  0.38381394  0.05225400  0.81122249    -0.43900
N1012       N  0.44522500  0.37672100  0.67684190    -0.43900
C1013       C  0.40265220  0.35827644  0.76176763    -0.00300
C1014       C  0.40693156  0.32201307  0.77720872    -0.12100
C1015       C  0.39899857  0.29049608  0.75442685     0.02000
C1016       C  0.38519744  0.29392930  0.71523909    -0.00400
C1017       C  0.37671525  0.32948839  0.70264799    -0.12100
C1018       C  0.38432170  0.36139773  0.72614960     0.01900
H1019       H  0.41832944  0.31776841  0.80621182     0.14800
H1020       H  0.36449718  0.33244141  0.67394246     0.14800
C1021       C  0.37142982  0.39592233  0.71377984     0.36500
C1022       C  0.40519964  0.25476894  0.77252518     0.36400
N1023       N  0.36075489  0.42326730  0.70338232    -0.43900
N1024       N  0.41011307  0.22642822  0.78774783    -0.43900
C1025       C  0.94676837  0.42363474  0.89462315    -0.00300
C1026       C  0.95855091  0.45876964  0.90312865    -0.12100
C1027       C  0.98582771  0.46630312  0.89275639     0.02000
C1028       C  0.00188645  0.43931395  0.87155082    -0.00400
C1029       C  0.98881422  0.40777988  0.85545050    -0.12100
C1030       C  0.96172300  0.39986512  0.86611753     0.01900
H1031       H  0.94688563  0.48084423  0.91848782     0.14800
H1032       H  0.00078390  0.38724492  0.83762894     0.14800
C1033       C  0.95198828  0.36423240  0.85229477     0.36500
C1034       C  0.99753205  0.99864511  0.89623143     0.36400
N1035       N  0.94568028  0.33480499  0.84177011    -0.43900
N1036       N  0.00711019  0.02686569  0.90446044    -0.43900
C1037       C  0.89867588  0.41323170  0.87055112    -0.00300
C1038       C  0.89703862  0.44619877  0.84691565    -0.12100
C1039       C  0.88001282  0.45076951  0.81111691     0.02000
C1040       C  0.86386706  0.42090699  0.79562768    -0.00400
C1041       C  0.86434800  0.38873124  0.82058607    -0.12100
C1042       C  0.88257620  0.38337991  0.85475104     0.01900
H1043       H  0.90873106  0.46969896  0.85781380     0.14800
H1044       H  0.85214716  0.36552876  0.81023071     0.14800
C1045       C  0.88574642  0.34537651  0.86768320     0.36500
C1046       C  0.87907962  0.48770671  0.79437075     0.36400
N1047       N  0.88778855  0.31442247  0.87638397    -0.43900
N1048       N  0.87815497  0.01682593  0.78206153    -0.43900
C1049       C  0.84690815  0.02103236  0.67646516    -0.00300
C1050       C  0.87009092  0.99842119  0.68155328    -0.12100
C1051       C  0.87186781  0.46499325  0.70571269     0.02000
C1052       C  0.84686091  0.45446310  0.72529664    -0.00400
C1053       C  0.82111362  0.97658918  0.71658108    -0.12100
C1054       C  0.82194670  0.00930150  0.69275682     0.01900
H1055       H  0.88921941  0.00687667  0.66760158     0.14800
H1056       H  0.80119234  0.96836167  0.72696978     0.14800
C1057       C  0.79712221  0.03098080  0.68634533     0.36500
C1058       C  0.89800916  0.44652561  0.71168282     0.36400
N1059       N  0.77736298  0.04858973  0.68091860    -0.43900
N1060       N  0.92018170  0.43484635  0.71446369    -0.43900
C1061       C  0.85272291  0.38655779  0.72338095    -0.00300
C1062       C  0.83447225  0.38011200  0.68888207    -0.12100
C1063       C  0.83702685  0.34894782  0.66188093     0.02000
C1064       C  0.85944028  0.32407684  0.66653346    -0.00400
C1065       C  0.87925356  0.33211010  0.69726702    -0.12100
C1066       C  0.87649398  0.36256464  0.72510597     0.01900
H1067       H  0.81692879  0.39861289  0.68455423     0.14800
H1068       H  0.89708989  0.31381178  0.70014303     0.14800
C1069       C  0.90001189  0.36855044  0.75175321     0.36500
C1070       C  0.81632053  0.34362853  0.62962440     0.36400
N1071       N  0.91963711  0.37295856  0.77169851    -0.43900
N1072       N  0.79940985  0.34009369  0.60407483    -0.43900
C1073       C  0.89201106  0.00717016  0.99194491    -0.00300
C1074       C  0.91580194  0.98675715  0.00171780    -0.12100
C1075       C  0.92363121  0.95540532  0.97795733     0.02000
C1076       C  0.90690434  0.44470328  0.94408739    -0.00400
C1077       C  0.88195049  0.96225218  0.93646822    -0.12100
C1078       C  0.87439402  0.99385641  0.96002474     0.01900
H1079       H  0.92802520  0.99896372  0.53190891     0.14800
H1080       H  0.86702916  0.45414819  0.91408598     0.14800
C1081       C  0.84943447  0.01333846  0.94824099     0.36500
C1082       C  0.94914816  0.93774529  0.99043427     0.36400
N1083       N  0.82949066  0.02866168  0.93792100    -0.43900
N1084       N  0.96410551  0.41819846  0.01142591    -0.43900
C1085       C  0.90587305  0.31047657  0.98158783    -0.00300
C1086       C  0.93244010  0.31922491  0.97003563    -0.12100
C1087       C  0.93799563  0.35250141  0.94965102     0.02000
C1088       C  0.91595658  0.37746592  0.93806392    -0.00400
C1089       C  0.88975266  0.36942887  0.95447126    -0.12100
C1090       C  0.88457831  0.33651680  0.97531332     0.01900
H1091       H  0.94907098  0.29986917  0.97733435     0.14800
H1092       H  0.87259055  0.38825804  0.94879367     0.14800
C1093       C  0.85858908  0.33628355  0.49302050     0.36500
C1094       C  0.96672773  0.35975754  0.94512497     0.36400
N1095       N  0.83692187  0.33191782  0.50650043    -0.43900
N1096       N  0.99005297  0.36427496  0.94274460    -0.43900
C1097       C  0.05976196  0.17810312  0.55005382    -0.00300
C1098       C  0.04169551  0.17706260  0.51461732    -0.12100
C1099       C  0.01353519  0.18304346  0.51835303     0.02000
C1100       C  0.00195004  0.19153468  0.55819791    -0.00400
C1101       C  0.01940572  0.19603569  0.59326791    -0.12100
C1102       C  0.04798626  0.19006461  0.58968494     0.01900
H1103       H  0.04865377  0.16274608  0.97923013     0.14800
H1104       H  0.01055951  0.20307139  0.62399280     0.14800
C1105       C  0.06377774  0.19849094  0.62715636     0.36500
C1106       C  0.99677352  0.17921982  0.48059214     0.36400
N1107       N  0.07549729  0.20583618  0.65806093    -0.43900
N1108       N  0.98260134  0.17304691  0.94542202    -0.43900
C1109       C  0.69719082  0.14622293  0.51306152    -0.00300
C1110       C  0.71347524  0.17677332  0.50257438    -0.12100
C1111       C  0.74005323  0.18089069  0.51857525     0.02000
C1112       C  0.75233810  0.15277511  0.54315548    -0.00400
C1113       C  0.73800522  0.12024469  0.54914791    -0.12100
C1114       C  0.71097707  0.11658722  0.53490012     0.01900
H1115       H  0.70539161  0.19618593  0.98304893     0.14800
H1116       H  0.74767356  0.09783031  0.56673485     0.14800
C1117       C  0.69824546  0.08248955  0.54607937     0.36500
C1118       C  0.75436311  0.21404711  0.50808151     0.36400
N1119       N  0.68965501  0.05435843  0.55605060    -0.43900
N1120       N  0.76692375  0.23573364  0.99609732    -0.43900
C1121       C  0.55684003  0.13519186  0.63451732    -0.00300
C1122       C  0.53891564  0.16598004  0.63870832    -0.12100
C1123       C  0.51077087  0.16337098  0.63545469     0.02000
C1124       C  0.49852555  0.12865818  0.62845930    -0.00400
C1125       C  0.51581104  0.09790774  0.62020302    -0.12100
C1126       C  0.54458867  0.10080919  0.62242060     0.01900
H1127       H  0.54618977  0.19313967  0.64582063     0.14800
H1128       H  0.50687163  0.07131671  0.61309606     0.14800
C1129       C  0.56054491  0.06761466  0.61305928     0.36500
C1130       C  0.49574648  0.19805501  0.64017083     0.36400
N1131       N  0.57267855  0.04040200  0.60580916    -0.43900
N1132       N  0.48567776  0.22711378  0.64459626    -0.43900
C1133       C  0.64654512  0.14733621  0.53969693    -0.00300
C1134       C  0.61812041  0.14709939  0.53109720    -0.12100
C1135       C  0.59853523  0.14272998  0.56308039     0.02000
C1136       C  0.60680652  0.14157869  0.60682305    -0.00400
C1137       C  0.63465722  0.14844333  0.61525215    -0.12100
C1138       C  0.65431273  0.15080878  0.58343702     0.01900
H1139       H  0.61126077  0.14733790  0.49820881     0.14800
H1140       H  0.64130468  0.15131022  0.64813162     0.14800
C1141       C  0.68116715  0.16046203  0.59875908     0.36500
C1142       C  0.57054682  0.14190409  0.54826616     0.36400
N1143       N  0.70210892  0.16895467  0.61278038    -0.43900
N1144       N  0.54839451  0.14177910  0.53499352    -0.43900
C1145       C  0.75970557  0.40590655  0.80205345    -0.00300
C1146       C  0.77373235  0.43864374  0.81058147    -0.12100
C1147       C  0.80109800  0.44306692  0.79793590     0.02000
C1148       C  0.81519966  0.41496326  0.77344628    -0.00400
C1149       C  0.80146125  0.38087750  0.76897256    -0.12100
C1150       C  0.77420869  0.37655368  0.78162826     0.01900
H1151       H  0.76319952  0.46110985  0.82747286     0.14800
H1152       H  0.81178303  0.35670882  0.75555304     0.14800
C1153       C  0.76135663  0.34204209  0.77086224     0.36500
C1154       C  0.81335980  0.47756840  0.81013989     0.36400
N1155       N  0.75130988  0.31434701  0.76165845    -0.40300
N1156       N  0.82382600  0.99846364  0.83413407    -0.43900
C1157       C  0.65962429  0.04053110  0.92276996    -0.00300
C1158       C  0.64339648  0.04545923  0.95915428    -0.12100
C1159       C  0.64579783  0.07560838  0.98684548     0.02000
C1160       C  0.66278396  0.10594371  0.97640233    -0.00400
C1161       C  0.68011505  0.09991648  0.94048368    -0.12100
C1162       C  0.67864207  0.06814790  0.91392858     0.01900
H1163       H  0.63254888  0.52462040  0.96798246     0.14800
H1164       H  0.69469104  0.12088104  0.93254131     0.14800
C1165       C  0.69728743  0.06456585  0.87862769     0.36500
C1166       C  0.63356087  0.06940028  0.02769119     0.36400
N1167       N  0.71242857  0.06180556  0.85052695    -0.43900
N1168       N  0.62335391  0.06462728  0.55941298    -0.43900
C1169       C  0.65653579  0.17824475  0.97447246    -0.00300
C1170       C  0.65000763  0.17431804  0.93048186    -0.12100
C1171       C  0.64720878  0.20488612  0.90358394     0.02000
C1172       C  0.64659195  0.24095216  0.92064703    -0.00400
C1173       C  0.64996003  0.24570456  0.96443660    -0.12100
C1174       C  0.65523119  0.21550185  0.99116327     0.01900
H1175       H  0.64792858  0.14760132  0.91545946     0.14800
H1176       H  0.64945129  0.27360144  0.97774176     0.14800
C1177       C  0.66032403  0.22517914  0.03508770     0.36500
C1178       C  0.64845006  0.19859070  0.85820981     0.36400
N1179       N  0.66477448  0.23549184  0.56824186    -0.43900
N1180       N  0.65061770  0.19341967  0.82197096    -0.43900
C1181       C  0.59599244  0.10451336  0.67496804    -0.00300
C1182       C  0.61910238  0.08120109  0.66519897    -0.12100
C1183       C  0.62688201  0.05071574  0.68985919     0.02000
C1184       C  0.61119839  0.04136793  0.72513074    -0.00400
C1185       C  0.58746826  0.06241370  0.73420801    -0.12100
C1186       C  0.57952557  0.09294029  0.70979889     0.01900
H1187       H  0.63124898  0.08501027  0.63739340     0.14800
H1188       H  0.57473307  0.05467463  0.76066851     0.14800
C1189       C  0.55422159  0.11163501  0.72222402     0.36500
C1190       C  0.65545534  0.53016781  0.68520569     0.36400
N1191       N  0.53401479  0.12632439  0.73271547    -0.43900
N1192       N  0.67542681  0.51425836  0.67602609    -0.43900
C1193       C  0.59655398  0.24459438  0.72172723    -0.00300
C1194       C  0.59632885  0.24484073  0.67733589    -0.12100
C1195       C  0.59367210  0.21241979  0.65303681     0.02000
C1196       C  0.59230319  0.17684495  0.67296909    -0.00400
C1197       C  0.59425519  0.17747931  0.71808539    -0.12100
C1198       C  0.59421357  0.21048923  0.74209728     0.01900
H1199       H  0.59783777  0.27105478  0.66118605     0.14800
H1200       H  0.59575897  0.15260764  0.73613307     0.14800
C1201       C  0.59130793  0.20829840  0.78765501     0.36500
C1202       C  0.59135689  0.21832747  0.60778965     0.36400
N1203       N  0.58818620  0.20661950  0.82402154    -0.43900
N1204       N  0.58971353  0.22501179  0.57196848    -0.43900
C1205       C  0.50523717  0.37282759  0.81129594    -0.00300
C1206       C  0.49062083  0.40132058  0.83226202    -0.12100
C1207       C  0.46235529  0.40664175  0.82653802     0.02000
C1208       C  0.44743945  0.38374870  0.79746480    -0.00400
C1209       C  0.46289517  0.35533858  0.77599395    -0.12100
C1210       C  0.49098232  0.34894835  0.78395113     0.01900
H1211       H  0.50157147  0.41985082  0.85348580     0.14800
H1212       H  0.45362629  0.33825112  0.75172088     0.14800
C1213       C  0.50502177  0.31860377  0.76233101     0.36500
C1214       C  0.44954648  0.43444479  0.85373623     0.36400
N1215       N  0.51630196  0.29401425  0.74554021    -0.43900
N1216       N  0.44003890  0.45611429  0.87713075    -0.43900
Zr1217     Zr  0.60198331  0.83141632  0.33875943     2.17500
O1218       O  0.57485140  0.80222487  0.39319602    -0.51400
O1219       O  0.59653564  0.78415754  0.28378646    -0.74600
O1220       O  0.55213261  0.84355646  0.32483663    -0.81400
O1221       O  0.66790247  0.79335257  0.39035337    -0.83200
O1222       O  0.54730939  0.90301276  0.30267932    -0.78800
O1223       O  0.62356234  0.77885185  0.37580996    -0.90400
O1224       O  0.62131222  0.80196251  0.22713642    -0.76400
O1225       O  0.59981426  0.86652883  0.27531651    -0.85900
O1226       O  0.64611963  0.82511911  0.30625131    -0.85600
O1227       O  0.59273212  0.89403864  0.36202311    -0.72300
O1228       O  0.63552689  0.85504547  0.38815128    -0.84500
Zr1229     Zr  0.66679749  0.94842485  0.31152451     2.26400
Zr1230     Zr  0.59157300  0.92918190  0.29819566     2.06300
Zr1231     Zr  0.67915322  0.85029897  0.35448208     2.10000
Zr1232     Zr  0.64343648  0.85975926  0.24276440     1.78800
O1233       O  0.70254935  0.85693446  0.42272878    -0.93300
O1234       O  0.61612074  0.87519337  0.18022673    -0.41100
O1235       O  0.67659256  0.88508720  0.29038404    -0.77700
O1236       O  0.63437182  0.92336708  0.26140006    -0.96400
O1237       O  0.62395669  0.95400810  0.34684969    -0.89700
O1238       O  0.67048728  0.91334909  0.37559162    -0.92500
C1239       C  0.60595155  0.77917435  0.24606011     1.01200
C1240       C  0.64721348  0.77217282  0.39281586     1.14100
C1241       C  0.53752623  0.87196066  0.31278009     1.04900
O1242       O  0.56637773  0.93667869  0.23178132    -0.94700
O1243       O  0.59840040  0.98916900  0.26897067    -0.90400
O1244       O  0.64430460  0.99767977  0.26842886    -0.83600
C1245       C  0.61940576  0.00753846  0.25900772     1.11600
O1246       O  0.60609241  0.88623920  0.46836858    -0.96700
Zr1247     Zr  0.62701199  0.91780069  0.40920957     1.88900
O1248       O  0.66931044  0.99747233  0.36584773    -0.73300
O1249       O  0.56310627  0.97318392  0.33863806    -0.52600
O1250       O  0.58828991  0.95272343  0.43912495    -0.97300
O1251       O  0.65960283  0.91388085  0.46809048    -0.54500
O1252       O  0.64204219  0.98006839  0.41946771    -0.73800
C1253       C  0.65725878  0.00359419  0.40154449     0.98500
O1254       O  0.70033241  0.98363146  0.27286326    -0.62700
O1255       O  0.71071375  0.80018767  0.33360645    -0.57500
O1256       O  0.71619215  0.93351729  0.31136013    -0.94100
O1257       O  0.72276152  0.87349939  0.33040436    -0.92600
O1258       O  0.67867554  0.81609664  0.21744095    -0.92900
O1259       O  0.67315601  0.88093197  0.18665018    -0.91700
C1260       C  0.73153175  0.90444168  0.31690195     1.17300
H1261       H  0.65060222  0.79940187  0.30029975     0.33300
H1262       H  0.63383221  0.93705563  0.23527587     0.44100
H1263       H  0.68490872  0.92268328  0.39366630     0.37700
H1264       H  0.57524914  0.89563701  0.37621132     0.34100
H1265       H  0.62256569  0.85747660  0.15793689     0.25900
H1266       H  0.54665639  0.97740711  0.32066319     0.31900
H1267       H  0.59483891  0.96170663  0.46721029     0.37800
H1268       H  0.68309388  0.80018950  0.24199879     0.32200
H1269       H  0.71874194  0.79099798  0.36055450     0.31100
H1270       H  0.72121366  0.86487879  0.41560987     0.32800
H1271       H  0.65956850  0.88773982  0.47703329     0.31800
H1272       H  0.68027466  0.90466884  0.19766107     0.35800
H1273       H  0.69646484  0.97844974  0.24245504     0.28500
H1274       H  0.55914037  0.79116390  0.37806038     0.32700
H1275       H  0.58901450  0.87602987  0.45639491     0.35600
H1276       H  0.69906690  0.77992087  0.32306916     0.28200
H1277       H  0.69516341  0.01003907  0.27733912     0.41100
H1278       H  0.58027564  0.93270805  0.20930098     0.31100
H1279       H  0.59744218  0.86708020  0.18699893     0.38700
H1280       H  0.65075097  0.92793486  0.49174491     0.30600
H1281       H  0.55641759  0.95919925  0.36317153     0.30600
H1282       H  0.56682570  0.82307548  0.41007591     0.30900
C1283       C  0.59091968  0.63964744  0.14658764    -0.02600
C1284       C  0.67038261  0.64259479  0.50238701    -0.02600
Zr1285     Zr  0.90945003  0.72155867  0.09764022     2.17500
O1286       O  0.93752050  0.74858040  0.15390203    -0.51400
O1287       O  0.91503900  0.76985535  0.04501861    -0.74600
O1288       O  0.95864194  0.70981275  0.08424311    -0.81400
O1289       O  0.84292220  0.76715349  0.13847236    -0.83200
O1290       O  0.96261536  0.65240476  0.05366800    -0.78800
O1291       O  0.88903669  0.77449770  0.13631126    -0.90400
O1292       O  0.88877530  0.75740183  0.48740376    -0.76400
O1293       O  0.91170896  0.68622898  0.03297780    -0.85900
O1294       O  0.86580702  0.72956131  0.06401342    -0.85600
O1295       O  0.91820675  0.65841419  0.11807948    -0.72300
O1296       O  0.87556484  0.69910124  0.14562634    -0.84500
Zr1297     Zr  0.84363211  0.60753224  0.06671343     2.26400
Zr1298     Zr  0.91905361  0.62310818  0.05305080     2.06300
Zr1299     Zr  0.83225493  0.70561097  0.11055177     2.10000
Zr1300     Zr  0.86847326  0.69465320  0.99947916     1.78800
O1301       O  0.81201151  0.69801512  0.18038934    -0.93300
O1302       O  0.90073972  0.68685866  0.43695438    -0.41100
O1303       O  0.83508705  0.67033818  0.04573517    -0.77700
O1304       O  0.87624937  0.63065753  0.01696041    -0.96400
O1305       O  0.88666093  0.59969410  0.10119366    -0.89700
O1306       O  0.83998882  0.64263749  0.13159850    -0.92500
C1307       C  0.90364830  0.77688488  0.00898783     1.01200
C1308       C  0.86460974  0.78559357  0.14630839     1.14100
C1309       C  0.97260326  0.68292003  0.06691826     1.04900
O1310       O  0.94371529  0.61267507  0.48505729    -0.94700
O1311       O  0.90868797  0.56148849  0.02656723    -0.90400
O1312       O  0.86258120  0.55547678  0.02557591    -0.83600
C1313       C  0.88696318  0.54360399  0.01740007     1.11600
O1314       O  0.90540787  0.66915049  0.22359191    -0.96700
Zr1315     Zr  0.88392263  0.63593996  0.16469794     1.88900
O1316       O  0.83607071  0.56350778  0.12339026    -0.73300
O1317       O  0.95108692  0.58334931  0.09183959    -0.52600
O1318       O  0.92333400  0.60440971  0.19674445    -0.97300
O1319       O  0.85262926  0.63511494  0.22471937    -0.54500
O1320       O  0.87111273  0.57200915  0.16974565    -0.73800
C1321       C  0.85159990  0.55293408  0.15411881     0.98500
O1322       O  0.81861769  0.56843652  0.52161870    -0.62700
O1323       O  0.79505839  0.74996044  0.09692038    -0.57500
O1324       O  0.79624141  0.62662331  0.05775785    -0.94100
O1325       O  0.78970609  0.68690791  0.07655614    -0.92600
O1326       O  0.83206616  0.73368536  0.47282396    -0.92900
O1327       O  0.84622758  0.66834964  0.43853032    -0.91700
C1328       C  0.78146862  0.65618850  0.06060719     1.17300
H1329       H  0.86146947  0.75532193  0.05895600     0.33300
H1330       H  0.87889822  0.61855122  0.49016061     0.44100
H1331       H  0.82541210  0.63377147  0.14911523     0.37700
H1332       H  0.93579196  0.65638872  0.13214388     0.34100
H1333       H  0.89315506  0.70367777  0.41505726     0.25900
H1334       H  0.94000912  0.56244413  0.10133587     0.31900
H1335       H  0.92600376  0.58146199  0.17955169     0.37800
H1336       H  0.83860745  0.74515030  0.44645708     0.32200
H1337       H  0.79144671  0.76293354  0.12433425     0.31100
H1338       H  0.81990959  0.71798467  0.19816317     0.32800
H1339       H  0.85027556  0.66132958  0.23374726     0.31800
H1340       H  0.83514728  0.64894522  0.45154169     0.35800
H1341       H  0.80398393  0.55924640  0.54010431     0.28500
H1342       H  0.95023450  0.76504746  0.13926847     0.32700
H1343       H  0.89787215  0.69477121  0.22225856     0.35600
H1344       H  0.80311220  0.76868876  0.07839160     0.28200
H1345       H  0.80918016  0.58423642  0.50035940     0.41100
H1346       H  0.93839063  0.63391917  0.46709630     0.31100
H1347       H  0.91824756  0.69809863  0.44559037     0.38700
H1348       H  0.86337208  0.62346720  0.24795064     0.30600
H1349       H  0.96326912  0.57241476  0.06971533     0.30600
H1350       H  0.94920768  0.72792005  0.16450895     0.30900
C1351       C  0.91904021  0.91647917  0.41322772    -0.02600
C1352       C  0.84619885  0.91867892  0.25667549    -0.02600
Zr1353     Zr  0.40942832  0.58729386  0.09847165     2.17500
O1354       O  0.43925973  0.55265771  0.04947687    -0.51400
O1355       O  0.41591957  0.54047990  0.15368230    -0.74600
O1356       O  0.45858804  0.60221037  0.10665016    -0.81400
O1357       O  0.34421792  0.55235182  0.04591232    -0.83200
O1358       O  0.45924087  0.65652420  0.14334919    -0.78800
O1359       O  0.38940384  0.53802045  0.05386203    -0.90400
O1360       O  0.38958461  0.56032259  0.20875608    -0.76400
O1361       O  0.41049361  0.62558714  0.16105729    -0.85900
O1362       O  0.36552424  0.58285193  0.13140412    -0.85600
O1363       O  0.41720332  0.64936019  0.07492048    -0.72300
O1364       O  0.37514464  0.61004521  0.04957440    -0.84500
Zr1365     Zr  0.34159052  0.70753484  0.12312224     2.26400
Zr1366     Zr  0.41603110  0.68781711  0.13773379     2.06300
Zr1367     Zr  0.33170095  0.60840551  0.08402129     2.10000
Zr1368     Zr  0.36743373  0.61982767  0.19406277     1.78800
O1369       O  0.30449760  0.61116598  0.01896571    -0.93300
O1370       O  0.39674088  0.63304600  0.25508818    -0.41100
O1371       O  0.33365363  0.64570799  0.14698394    -0.77700
O1372       O  0.37379110  0.68305976  0.17465347    -0.96400
O1373       O  0.38410235  0.71094841  0.08744437    -0.89700
O1374       O  0.33906460  0.66987707  0.05995299    -0.92500
C1375       C  0.40605268  0.53657059  0.19119621     1.01200
C1376       C  0.36532770  0.53150705  0.03874559     1.14100
C1377       C  0.47128010  0.62914209  0.12489224     1.04900
O1378       O  0.44746648  0.71121229  0.19155253    -0.94700
O1379       O  0.40570587  0.74537788  0.17543738    -0.90400
O1380       O  0.35988645  0.75616436  0.17060907    -0.83600
C1381       C  0.38396065  0.76454921  0.18393096     1.11600
O1382       O  0.40919045  0.64072497  0.96966879    -0.96700
Zr1383     Zr  0.38280941  0.67109045  0.02625991     1.88900
O1384       O  0.33992517  0.75160190  0.06481227    -0.73300
O1385       O  0.43495742  0.72782548  0.08420357    -0.52600
O1386       O  0.41967736  0.70629027  0.99577647    -0.97300
O1387       O  0.35412411  0.65316026  0.96603850    -0.54500
O1388       O  0.36452143  0.73072208  0.00809697    -0.73800
C1389       C  0.34980003  0.75519675  0.02738647     0.98500
O1390       O  0.30840607  0.75719577  0.13969615    -0.62700
O1391       O  0.30341879  0.55906447  0.11050532    -0.57500
O1392       O  0.29418314  0.68948433  0.13568527    -0.94100
O1393       O  0.28754030  0.63200707  0.10859943    -0.92600
O1394       O  0.32864204  0.58267672  0.21374990    -0.92900
O1395       O  0.34236187  0.64247686  0.25619618    -0.91700
C1396       C  0.27891501  0.66160936  0.12777623     1.17300
H1397       H  0.36138152  0.55750154  0.13753065     0.33300
H1398       H  0.37355001  0.69684256  0.20115024     0.44100
H1399       H  0.32436508  0.67846390  0.04163724     0.37700
H1400       H  0.43473788  0.65068192  0.06102917     0.34100
H1401       H  0.41381897  0.61845913  0.24982720     0.25900
H1402       H  0.44121318  0.74991573  0.10014182     0.31900
H1403       H  0.41206427  0.71640485  0.96898771     0.37800
H1404       H  0.33676472  0.56036634  0.22717556     0.32200
H1405       H  0.31560654  0.53686711  0.11201037     0.31100
H1406       H  0.29336334  0.58862720  0.01939901     0.32800
H1407       H  0.34015786  0.67298759  0.46839620     0.31800
H1408       H  0.33170783  0.66422540  0.24591269     0.35800
H1409       H  0.31795955  0.78075817  0.13571916     0.28500
H1410       H  0.45312213  0.53992217  0.06747901     0.32700
H1411       H  0.41830720  0.61382559  0.48342463     0.35600
H1412       H  0.29982686  0.56583756  0.14060706     0.28200
H1413       H  0.29490111  0.75678000  0.11609209     0.41100
H1414       H  0.44564184  0.69426495  0.21576614     0.31100
H1415       H  0.40209024  0.65903588  0.25147050     0.38700
H1416       H  0.34933796  0.62718373  0.97144650     0.30600
H1417       H  0.45186095  0.71497362  0.07415284     0.30600
H1418       H  0.44946389  0.57145480  0.03381091     0.30900
C1419       C  0.41804107  0.89329776  0.28629955    -0.02600
C1420       C  0.33946153  0.89335941  0.43504892    -0.02600
Zr1421     Zr  0.09867761  0.97545454  0.36161133     2.17500
O1422       O  0.07232802  0.02075080  0.32059051    -0.51400
O1423       O  0.09765273  0.51813449  0.41431870    -0.74600
O1424       O  0.04832625  0.96601042  0.36489663    -0.81400
O1425       O  0.16745452  0.50257211  0.30459558    -0.83200
O1426       O  0.04215843  0.90874990  0.39157314    -0.78800
O1427       O  0.12316371  0.52077714  0.31417863    -0.90400
O1428       O  0.12776983  0.50029699  0.46591186    -0.76400
O1429       O  0.09681209  0.94136438  0.42574358    -0.85900
O1430       O  0.14362936  0.97569996  0.39245464    -0.85600
O1431       O  0.08692577  0.91420937  0.33848080    -0.72300
O1432       O  0.12971959  0.94734239  0.31053309    -0.84500
Zr1433     Zr  0.15927710  0.84990874  0.38431860     2.26400
Zr1434     Zr  0.08574019  0.88006743  0.40317622     2.06300
Zr1435     Zr  0.17416120  0.94571636  0.34272928     2.10000
Zr1436     Zr  0.14174955  0.94096804  0.45578806     1.78800
O1437       O  0.19683011  0.93966030  0.27405222    -0.93300
O1438       O  0.11609727  0.93200914  0.52095730    -0.41100
O1439       O  0.17243660  0.91091124  0.40670888    -0.77700
O1440       O  0.12978521  0.87911811  0.43641173    -0.96400
O1441       O  0.11516971  0.85044412  0.35225189    -0.89700
O1442       O  0.16281142  0.88438357  0.32050441    -0.92500
C1443       C  0.11050794  0.52309411  0.44960830     1.01200
C1444       C  0.14754721  0.52582943  0.30015562     1.14100
C1445       C  0.03307694  0.93921393  0.37652502     1.04900
O1446       O  0.06690446  0.88438468  0.47467391    -0.94700
O1447       O  0.09184338  0.82019299  0.43362858    -0.90400
O1448       O  0.13654570  0.80292163  0.42504213    -0.83600
C1449       C  0.11220245  0.79792863  0.43860201     1.11600
O1450       O  0.09341366  0.91509037  0.23118290    -0.96700
Zr1451     Zr  0.11830104  0.88594792  0.28948744     1.88900
O1452       O  0.16057342  0.80288145  0.32747227    -0.73300
O1453       O  0.05072427  0.83894161  0.37568231    -0.52600
O1454       O  0.07703293  0.85473622  0.26645188    -0.97300
O1455       O  0.14581280  0.89455570  0.22610414    -0.54500
O1456       O  0.13312646  0.82332604  0.27431252    -0.73800
C1457       C  0.14815169  0.79833042  0.29165336     0.98500
O1458       O  0.18470258  0.80365215  0.42548272    -0.62700
O1459       O  0.20557074  0.99352712  0.36587747    -0.57500
O1460       O  0.20856479  0.85949647  0.38715937    -0.94100
O1461       O  0.21760320  0.91640631  0.36146902    -0.92600
O1462       O  0.18258744  0.97628455  0.47131031    -0.92900
O1463       O  0.16834023  0.91665110  0.51530212    -0.91700
C1464       C  0.22489903  0.88546690  0.37790014     1.17300
H1465       H  0.15098457  0.49775327  0.39124174     0.33300
H1466       H  0.12966324  0.86507884  0.46228109     0.44100
H1467       H  0.17652490  0.87352275  0.30181901     0.37700
H1468       H  0.06952077  0.91410996  0.32384502     0.34100
H1469       H  0.11378296  0.94420021  0.03400565     0.25900
H1470       H  0.06093477  0.81775813  0.36258433     0.31900
H1471       H  0.07566627  0.83339599  0.28562282     0.37800
H1472       H  0.18241698  0.49518398  0.45756981     0.32200
H1473       H  0.21091463  0.98688281  0.39521116     0.31100
H1474       H  0.21371879  0.92475677  0.27934170     0.32800
H1475       H  0.16244033  0.87875894  0.22983313     0.31800
H1476       H  0.17520615  0.89212766  0.50511341     0.35800
H1477       H  0.19860667  0.79264231  0.40599044     0.28500
H1478       H  0.06037505  0.53074581  0.33394164     0.32700
H1479       H  0.08302802  0.93589989  0.24475345     0.35600
H1480       H  0.22454703  0.48416920  0.34404081     0.28200
H1481       H  0.19517960  0.81757316  0.44725087     0.41100
H1482       H  0.05256243  0.90413702  0.47353373     0.31100
H1483       H  0.11278738  0.90511932  0.52183218     0.38700
H1484       H  0.15233089  0.92022768  0.22864955     0.30600
H1485       H  0.04198164  0.82865322  0.40111926     0.30600
H1486       H  0.06109764  0.00614618  0.30044218     0.30900
C1487       C  0.09138466  0.66616326  0.04016575    -0.02600
C1488       C  0.16501537  0.65743698  0.19477781    -0.02600
C1489       C  0.11102975  0.66570760  0.07995172    -0.00300
C1490       C  0.10769726  0.63656644  0.10879047    -0.12100
C1491       C  0.12560743  0.63008390  0.14307344     0.02000
C1492       C  0.14583101  0.65657013  0.15424793    -0.00400
C1493       C  0.14980621  0.68475158  0.12451215    -0.12100
C1494       C  0.13427027  0.68847615  0.08737851     0.01900
H1495       H  0.09148140  0.61708960  0.10294415     0.14800
H1496       H  0.16595784  0.70435001  0.13026285     0.14800
C1497       C  0.14571661  0.71356380  0.05729355     0.36500
C1498       C  0.12373201  0.59388819  0.16141200     0.36400
N1499       N  0.15609055  0.73326934  0.03391889    -0.43900
N1500       N  0.12179753  0.56424799  0.17435368    -0.43900
C1501       C  0.15090161  0.76185439  0.26871788    -0.00300
C1502       C  0.16989064  0.73503381  0.28310045    -0.12100
C1503       C  0.17383728  0.70102521  0.26145472     0.02000
C1504       C  0.15895342  0.69299744  0.22319682    -0.00400
C1505       C  0.13831955  0.71896778  0.21169825    -0.12100
C1506       C  0.13442653  0.75272168  0.23302506     0.01900
H1507       H  0.18228802  0.74087683  0.31101309     0.14800
H1508       H  0.12454614  0.71347357  0.18576057     0.14800
C1509       C  0.11293011  0.77685921  0.21674815     0.36500
C1510       C  0.19497444  0.67647945  0.27788994     0.36400
N1511       N  0.09571168  0.79573105  0.20297034    -0.43900
N1512       N  0.21222591  0.65753936  0.29146398    -0.43900
C1513       C  0.15319476  0.56055112  0.27671231    -0.00300
C1514       C  0.13218072  0.58728731  0.27175913    -0.12100
C1515       C  0.13577817  0.61889644  0.24721017     0.02000
C1516       C  0.16080453  0.62408764  0.22496202    -0.00400
C1517       C  0.18253055  0.59893914  0.23390930    -0.12100
C1518       C  0.17909404  0.56776262  0.25881336     0.01900
H1519       H  0.11245097  0.58324548  0.28641185     0.14800
H1520       H  0.20290558  0.60343061  0.22229409     0.14800
C1521       C  0.20309640  0.54432164  0.26523307     0.36500
C1522       C  0.11238897  0.64379281  0.24325710     0.36400
N1523       N  0.22258366  0.52602115  0.27004092    -0.43900
N1524       N  0.09323416  0.66304100  0.24047226    -0.43900
C1525       C  0.10707485  0.76471248  0.46265378    -0.00300
C1526       C  0.10925916  0.73035694  0.44214382    -0.12100
C1527       C  0.10285566  0.69799385  0.46331880     0.02000
C1528       C  0.09755057  0.69941051  0.50808882    -0.00400
C1529       C  0.09296707  0.73493449  0.52671637    -0.12100
C1530       C  0.09752608  0.76715938  0.50458684     0.01900
H1531       H  0.11426662  0.72914552  0.40854820     0.14800
H1532       H  0.08726257  0.73867376  0.05925428     0.14800
C1533       C  0.09340694  0.80228226  0.52641836     0.36500
C1534       C  0.09834824  0.66613381  0.43612988     0.36400
N1535       N  0.08998989  0.83022039  0.54425652    -0.43900
N1536       N  0.09446670  0.64127457  0.41341493    -0.43900
C1537       C  0.10578255  0.55795203  0.47296679    -0.00300
C1538       C  0.12728766  0.58249638  0.47681566    -0.12100
C1539       C  0.12382275  0.61650647  0.49807974     0.02000
C1540       C  0.09766433  0.62745184  0.51492748    -0.00400
C1541       C  0.07718479  0.60012201  0.51450776    -0.12100
C1542       C  0.08097692  0.56608754  0.49345107     0.01900
H1543       H  0.14688649  0.57519934  0.46248701     0.14800
H1544       H  0.05538463  0.60601498  0.03379926     0.14800
C1545       C  0.05982905  0.53889914  0.49550805     0.36500
C1546       C  0.14740008  0.63982540  0.49920357     0.36400
N1547       N  0.04315696  0.51677914  0.49761594    -0.43900
N1548       N  0.16702679  0.65712558  0.49850525    -0.43900
C1549       C  0.30891426  0.88818329  0.41984413    -0.00300
C1550       C  0.30239904  0.87882318  0.37687424    -0.12100
C1551       C  0.27526786  0.87766698  0.36214010     0.02000
C1552       C  0.25369366  0.88129220  0.39112073    -0.00400
C1553       C  0.25958332  0.88438308  0.43437460    -0.12100
C1554       C  0.28651253  0.88775001  0.44908642     0.01900
H1555       H  0.31822959  0.87245855  0.35396171     0.14800
H1556       H  0.24276761  0.88637490  0.45680482     0.14800
C1557       C  0.28926695  0.89373389  0.49429859     0.36500
C1558       C  0.27000618  0.87258665  0.31722042     0.36400
N1559       N  0.28709727  0.90889832  0.03072605    -0.43900
N1560       N  0.26573304  0.86865902  0.28121891    -0.43900
C1561       C  0.39983488  0.89447937  0.32777476    -0.00300
C1562       C  0.37395572  0.91259786  0.32554302    -0.12100
C1563       C  0.35669055  0.91687704  0.36070336     0.02000
C1564       C  0.36039706  0.89406280  0.39683488    -0.00400
C1565       C  0.38564263  0.87403708  0.39874069    -0.12100
C1566       C  0.40526642  0.87462760  0.36605788     0.01900
H1567       H  0.36761908  0.92590911  0.29641646     0.14800
H1568       H  0.39086526  0.85840823  0.42685242     0.14800
C1569       C  0.43011442  0.85335303  0.37378131     0.36500
C1570       C  0.33506866  0.94452275  0.35690348     0.36400
N1571       N  0.44984904  0.83615210  0.38087634    -0.43900
N1572       N  0.31828362  0.96706799  0.35140715    -0.43900
C1573       C  0.24980713  0.66257237  0.14294880    -0.00300
C1574       C  0.23268851  0.63304237  0.13206322    -0.12100
C1575       C  0.20597578  0.63073123  0.14805013     0.02000
C1576       C  0.19504200  0.65867500  0.17612404    -0.00400
C1577       C  0.21168933  0.68983841  0.18317097    -0.12100
C1578       C  0.23874737  0.69118342  0.16919401     0.01900
H1579       H  0.24032065  0.61092544  0.11134659     0.14800
H1580       H  0.20406754  0.71419311  0.19980183     0.14800
C1581       C  0.25452050  0.72185622  0.18486345     0.36500
C1582       C  0.19071456  0.59874045  0.13495825     0.36400
N1583       N  0.26638882  0.74649858  0.19909650    -0.43900
N1584       N  0.17931401  0.57259043  0.12379260    -0.43900
C1585       C  0.34228710  0.86048645  0.96405074    -0.00300
C1586       C  0.34065862  0.82635575  0.94134929    -0.12100
C1587       C  0.34182379  0.79223694  0.96125530     0.02000
C1588       C  0.34525823  0.79067393  0.00552608    -0.00400
C1589       C  0.34683383  0.82371335  0.02901202    -0.12100
C1590       C  0.34758329  0.85508819  0.50765415     0.01900
H1591       H  0.33817133  0.82624440  0.90712563     0.14800
H1592       H  0.34962806  0.82243958  0.06324627     0.14800
C1593       C  0.34832280  0.88614079  0.53692691     0.36500
C1594       C  0.33831744  0.75927372  0.93539495     0.36400
N1595       N  0.34880409  0.90990341  0.56200876    -0.43900
N1596       N  0.33533676  0.73294593  0.91465001    -0.43900
C1597       C  0.34500501  0.93061418  0.45974732    -0.00300
C1598       C  0.37061638  0.93728266  0.97804572    -0.12100
C1599       C  0.37809819  0.96799129  0.00325407     0.02000
C1600       C  0.35907877  0.99731386  0.01054064    -0.00400
C1601       C  0.33364170  0.99559361  0.98940356    -0.12100
C1602       C  0.32604471  0.96511245  0.96436979     0.01900
H1603       H  0.38683357  0.91324226  0.47337790     0.14800
H1604       H  0.31915471  0.01869663  0.99214114     0.14800
C1605       C  0.30021765  0.96969315  0.94236207     0.36500
C1606       C  0.40496683  0.96736453  0.02257066     0.36400
N1607       N  0.27929036  0.97477039  0.92571244    -0.43900
N1608       N  0.42654577  0.96636467  0.03794546    -0.43900
C1609       C  0.41072563  0.00098532  0.21858787    -0.00300
C1610       C  0.42215410  0.96944958  0.19791619    -0.12100
C1611       C  0.42643792  0.93562325  0.21936130     0.02000
C1612       C  0.41760978  0.93162356  0.26228062    -0.00400
C1613       C  0.40984169  0.96498332  0.28366323    -0.12100
C1614       C  0.40617224  0.99869171  0.26280723     0.01900
H1615       H  0.42714579  0.97078992  0.16443073     0.14800
H1616       H  0.40590213  0.96527486  0.31734622     0.14800
C1617       C  0.39766888  0.53022205  0.28523438     0.36500
C1618       C  0.43840247  0.90515838  0.19519872     0.36400
N1619       N  0.39046818  0.55502196  0.30636226    -0.43900
N1620       N  0.44781003  0.88104981  0.17507456    -0.43900
C1621       C  0.40465092  0.86084621  0.25999613    -0.00300
C1622       C  0.40951843  0.82445137  0.27457734    -0.12100
C1623       C  0.40177035  0.79323351  0.25133062     0.02000
C1624       C  0.38747405  0.79711532  0.21271917    -0.00400
C1625       C  0.37840501  0.83265381  0.20100137    -0.12100
C1626       C  0.38590009  0.86430773  0.22495971     0.01900
H1627       H  0.42130709  0.81992345  0.30315149     0.14800
H1628       H  0.36575832  0.83576758  0.17276046     0.14800
C1629       C  0.37232284  0.89876472  0.21399183     0.36500
C1630       C  0.40884340  0.75731318  0.26820235     0.36400
N1631       N  0.36105497  0.92606854  0.20491706    -0.43900
N1632       N  0.41451775  0.72878480  0.28236335    -0.43900
C1633       C  0.94803734  0.92585683  0.39539009    -0.00300
C1634       C  0.95951076  0.96144454  0.40204491    -0.12100
C1635       C  0.98678689  0.96862621  0.39190292     0.02000
C1636       C  0.00288862  0.94094238  0.37220151    -0.00400
C1637       C  0.99008799  0.90880619  0.35726028    -0.12100
C1638       C  0.96304099  0.90110950  0.36809878     0.01900
H1639       H  0.94772312  0.98397046  0.41629262     0.14800
H1640       H  0.00224405  0.88773523  0.34057738     0.14800
C1641       C  0.95340822  0.86492745  0.35609191     0.36500
C1642       C  0.99904614  0.50323781  0.40304281     0.36400
N1643       N  0.94705732  0.83515773  0.34708624    -0.43900
N1644       N  0.00809756  0.53124695  0.41358394    -0.43900
C1645       C  0.90013545  0.91463806  0.37218094    -0.00300
C1646       C  0.89862864  0.94688838  0.34717446    -0.12100
C1647       C  0.88128385  0.95077328  0.31168119     0.02000
C1648       C  0.86506515  0.92063347  0.29736178    -0.00400
C1649       C  0.86558628  0.88906447  0.32342614    -0.12100
C1650       C  0.88380398  0.88458761  0.35781960     0.01900
H1651       H  0.91040027  0.97061952  0.35706959     0.14800
H1652       H  0.85329584  0.86567292  0.31399272     0.14800
C1653       C  0.88669013  0.84716061  0.37275689     0.36500
C1654       C  0.87972260  0.98754194  0.29448858     0.36400
N1655       N  0.88857111  0.81661891  0.38317216    -0.43900
N1656       N  0.88176982  0.51462205  0.27299808    -0.43900
C1657       C  0.84810167  0.51593924  0.17227435    -0.00300
C1658       C  0.87140196  0.49322758  0.17631496    -0.12100
C1659       C  0.87201237  0.96382205  0.20637292     0.02000
C1660       C  0.84730283  0.95285351  0.22634337    -0.00400
C1661       C  0.82259815  0.47071329  0.21099044    -0.12100
C1662       C  0.82313767  0.50359399  0.18790867     0.01900
H1663       H  0.89044020  0.50182382  0.16222259     0.14800
H1664       H  0.80271471  0.46167566  0.22066307     0.14800
C1665       C  0.79804514  0.52497967  0.18278321     0.36500
C1666       C  0.89829042  0.94567150  0.21221654     0.36400
N1667       N  0.77783443  0.54197451  0.17903309    -0.43900
N1668       N  0.92041033  0.93382652  0.21507463    -0.43900
C1669       C  0.85404221  0.88472296  0.22618347    -0.00300
C1670       C  0.83630729  0.87783589  0.19116949    -0.12100
C1671       C  0.83953639  0.84670159  0.16418254     0.02000
C1672       C  0.86138024  0.82118937  0.17067831    -0.00400
C1673       C  0.88054540  0.82926424  0.20239249    -0.12100
C1674       C  0.87773664  0.86058909  0.22905878     0.01900
H1675       H  0.81894453  0.89640966  0.18576749     0.14800
H1676       H  0.89813679  0.81071910  0.20644049     0.14800
C1677       C  0.90132128  0.86752184  0.25527955     0.36500
C1678       C  0.82055182  0.84259570  0.12923054     0.36400
N1679       N  0.92098591  0.87265868  0.27489483    -0.43900
N1680       N  0.80521890  0.84026319  0.10119825    -0.43900
C1681       C  0.89356899  0.51167831  0.49066743    -0.00300
C1682       C  0.91623931  0.48956969  0.50159747    -0.12100
C1683       C  0.92349527  0.45794162  0.47792983     0.02000
C1684       C  0.90850722  0.94812776  0.44433364    -0.00400
C1685       C  0.88382046  0.46846113  0.43283560    -0.12100
C1686       C  0.87646576  0.49996052  0.45709354     0.01900
H1687       H  0.92692640  0.49412507  0.03241350     0.14800
H1688       H  0.86891131  0.95763784  0.41322775     0.14800
C1689       C  0.85193483  0.52043211  0.44527036     0.36500
C1690       C  0.94746680  0.43784273  0.49267792     0.36400
N1691       N  0.83218793  0.53637539  0.43522620    -0.43900
N1692       N  0.96832733  0.92734329  0.50922643    -0.43900
C1693       C  0.90942610  0.81535784  0.48853106    -0.00300
C1694       C  0.93569142  0.82432770  0.47595477    -0.12100
C1695       C  0.94057264  0.85702207  0.45400155     0.02000
C1696       C  0.91806674  0.88090691  0.44136878    -0.00400
C1697       C  0.89217299  0.87294349  0.45901151    -0.12100
C1698       C  0.88774991  0.84076299  0.48187756     0.01900
H1699       H  0.95261378  0.80551559  0.48350281     0.14800
H1700       H  0.87473300  0.89121459  0.45295090     0.14800
C1701       C  0.85962915  0.83138842  0.99708982     0.36500
C1702       C  0.96918894  0.86478683  0.44901265     0.36400
N1703       N  0.83804018  0.82608739  0.01033138    -0.43900
N1704       N  0.99247559  0.86959595  0.44653644    -0.43900
C1705       C  0.06018579  0.67353675  0.05102016    -0.00300
C1706       C  0.04180123  0.67245173  0.01594204    -0.12100
C1707       C  0.01367034  0.67832000  0.02032334     0.02000
C1708       C  0.00242534  0.68595218  0.06055547    -0.00400
C1709       C  0.02008517  0.69025020  0.09534291    -0.12100
C1710       C  0.04865916  0.68507698  0.09103084     0.01900
H1711       H  0.05054324  0.66398463  0.48226653     0.14800
H1712       H  0.01143608  0.69693453  0.12630316     0.14800
C1713       C  0.06461322  0.69445209  0.12803582     0.36500
C1714       C  0.99655909  0.67615423  0.98276063     0.36400
N1715       N  0.07640450  0.70271900  0.15856509    -0.43900
N1716       N  0.98468536  0.67760064  0.44963940    -0.43900
C1717       C  0.69907604  0.64677955  0.01154074    -0.00300
C1718       C  0.71542813  0.67709226  0.00049121    -0.12100
C1719       C  0.74184425  0.68139586  0.01695849     0.02000
C1720       C  0.75353599  0.65394711  0.04299257    -0.00400
C1721       C  0.73922733  0.62152289  0.04940192    -0.12100
C1722       C  0.71250961  0.61750596  0.03432762     0.01900
H1723       H  0.70911952  0.69737686  0.48417851     0.14800
H1724       H  0.74862158  0.59960507  0.06812242     0.14800
C1725       C  0.69928522  0.58429228  0.04733848     0.36500
C1726       C  0.75679863  0.71354287  0.00486050     0.36400
N1727       N  0.69024124  0.55712460  0.05948651    -0.43900
N1728       N  0.76813378  0.74185734  0.50273437    -0.43900
C1729       C  0.55996152  0.63587231  0.13432464    -0.00300
C1730       C  0.54247130  0.66719190  0.13677140    -0.12100
C1731       C  0.51453740  0.66554184  0.13053559     0.02000
C1732       C  0.50175903  0.63103434  0.12462555    -0.00400
C1733       C  0.51865737  0.59940065  0.11917703    -0.12100
C1734       C  0.54745905  0.60160842  0.12253056     0.01900
H1735       H  0.54989207  0.69421730  0.14390140     0.14800
H1736       H  0.50943521  0.57292866  0.11247364     0.14800
C1737       C  0.56332637  0.56835528  0.11300582     0.36500
C1738       C  0.50025444  0.70103376  0.13018847     0.36400
N1739       N  0.57562182  0.54140118  0.10513110    -0.43900
N1740       N  0.49032602  0.73038598  0.13041336    -0.43900
C1741       C  0.64895352  0.64760958  0.03876728    -0.00300
C1742       C  0.62053841  0.64730304  0.03047920    -0.12100
C1743       C  0.60117037  0.64266571  0.06262503     0.02000
C1744       C  0.60960186  0.64211720  0.10634488    -0.00400
C1745       C  0.63737028  0.64944244  0.11445431    -0.12100
C1746       C  0.65689625  0.65149749  0.08249832     0.01900
H1747       H  0.61356727  0.64712195  0.99763269     0.14800
H1748       H  0.64411154  0.65262838  0.14726183     0.14800
C1749       C  0.68374964  0.66106937  0.09798122     0.36500
C1750       C  0.57341414  0.63902281  0.04755733     0.36400
N1751       N  0.70458350  0.66928155  0.11263363    -0.43900
N1752       N  0.55156156  0.63603366  0.03368160    -0.43900
C1753       C  0.76116593  0.90635434  0.30539468    -0.00300
C1754       C  0.77534692  0.93900883  0.31315557    -0.12100
C1755       C  0.80266435  0.94289916  0.30016034     0.02000
C1756       C  0.81647111  0.91429440  0.27589108    -0.00400
C1757       C  0.80254889  0.88039599  0.27199033    -0.12100
C1758       C  0.77548423  0.87643785  0.28567210     0.01900
H1759       H  0.76496595  0.96181764  0.32967824     0.14800
H1760       H  0.81264287  0.85606872  0.25853788     0.14800
C1761       C  0.76272578  0.84143489  0.27724907     0.36500
C1762       C  0.81502606  0.97749337  0.31168613     0.36400
N1763       N  0.75278876  0.81323627  0.27019856    -0.40300
N1764       N  0.82507420  0.50302440  0.31842863    -0.43900
C1765       C  0.66671544  0.53850120  0.42395307    -0.00300
C1766       C  0.65234701  0.54181085  0.46233051    -0.12100
C1767       C  0.65324969  0.57304678  0.48862786     0.02000
C1768       C  0.66875416  0.60448929  0.47685011    -0.00400
C1769       C  0.68538614  0.59937828  0.44003861    -0.12100
C1770       C  0.68345930  0.56811350  0.41274559     0.01900
H1771       H  0.62948358  0.02480087  0.46978864     0.14800
H1772       H  0.69877899  0.62140777  0.43095576     0.14800
C1773       C  0.69790730  0.56832952  0.37288203     0.36500
C1774       C  0.63998758  0.56778309  0.52888235     0.36400
N1775       N  0.70919485  0.56923860  0.34067009    -0.43900
N1776       N  0.62537647  0.56530718  0.05698037    -0.43900
C1777       C  0.66106130  0.67670468  0.47380908    -0.00300
C1778       C  0.65460179  0.67235900  0.42986184    -0.12100
C1779       C  0.65156613  0.70268479  0.40265930     0.02000
C1780       C  0.65072614  0.73886640  0.41947515    -0.00400
C1781       C  0.65394267  0.74390321  0.46326134    -0.12100
C1782       C  0.65901884  0.71395133  0.49031061     0.01900
H1783       H  0.65239948  0.64550882  0.41522981     0.14800
H1784       H  0.65299733  0.77183472  0.47644470     0.14800
C1785       C  0.66261184  0.72371018  0.53459580     0.36500
C1786       C  0.65241858  0.69587017  0.35735275     0.36400
N1787       N  0.66723553  0.73574791  0.06865296    -0.43900
N1788       N  0.65415823  0.68987454  0.32120554    -0.43900
C1789       C  0.59935504  0.60483712  0.17450775    -0.00300
C1790       C  0.62297142  0.58228964  0.16532381    -0.12100
C1791       C  0.63153265  0.55271433  0.19097918     0.02000
C1792       C  0.61575037  0.54287721  0.22609063    -0.00400
C1793       C  0.59147919  0.56312313  0.23429501    -0.12100
C1794       C  0.58299566  0.59298114  0.20925298     0.01900
H1795       H  0.63505028  0.58615552  0.13740471     0.14800
H1796       H  0.57868938  0.55531669  0.26065378     0.14800
C1797       C  0.55727760  0.61086871  0.22108271     0.36500
C1798       C  0.65178159  0.02706964  0.18389290     0.36400
N1799       N  0.53667729  0.62487150  0.23088452    -0.43900
N1800       N  0.67027343  0.00886359  0.17288196    -0.43900
C1801       C  0.59994190  0.74439874  0.22244690    -0.00300
C1802       C  0.59972274  0.74503980  0.17807429    -0.12100
C1803       C  0.59702601  0.71280414  0.15344386     0.02000
C1804       C  0.59546344  0.67708839  0.17304175    -0.00400
C1805       C  0.59739215  0.67737204  0.21815134    -0.12100
C1806       C  0.59759107  0.71014828  0.24248915     0.01900
H1807       H  0.60122876  0.77139760  0.16223068     0.14800
H1808       H  0.59872895  0.65239631  0.23599786     0.14800
C1809       C  0.59508094  0.70749611  0.28808355     0.36500
C1810       C  0.59444946  0.71900157  0.10825563     0.36400
N1811       N  0.59233150  0.70532989  0.32448358    -0.43900
N1812       N  0.59236549  0.72571788  0.07249243    -0.43900
C1813       C  0.50708715  0.87126299  0.31071670    -0.00300
C1814       C  0.49260006  0.89917052  0.33310648    -0.12100
C1815       C  0.46465255  0.90674218  0.32576053     0.02000
C1816       C  0.44949807  0.88537105  0.29558914    -0.00400
C1817       C  0.46486070  0.85789400  0.27231785    -0.12100
C1818       C  0.49293861  0.85063487  0.27984156     0.01900
H1819       H  0.50361698  0.91627292  0.35580646     0.14800
H1820       H  0.45553315  0.84256142  0.24656531     0.14800
C1821       C  0.50730442  0.82395525  0.25301701     0.36500
C1822       C  0.45248780  0.93619478  0.35127106     0.36400
N1823       N  0.51887462  0.80274842  0.23136818    -0.43900
N1824       N  0.44369992  0.95976185  0.37285259    -0.43900
Zr1825     Zr  0.59876800  0.83335566  0.83425895     2.17500
O1826       O  0.57020608  0.80067573  0.88403516    -0.51400
O1827       O  0.59561737  0.78442361  0.78061530    -0.74600
O1828       O  0.54905086  0.84545314  0.82115865    -0.81400
O1829       O  0.66450293  0.79858432  0.89051387    -0.83200
O1830       O  0.54352733  0.90513683  0.79994120    -0.78800
O1831       O  0.62000664  0.78426225  0.87723770    -0.90400
O1832       O  0.62195327  0.80073297  0.72504955    -0.76400
O1833       O  0.59653167  0.86737035  0.76995731    -0.85900
O1834       O  0.64289798  0.82708874  0.80204838    -0.85600
O1835       O  0.58868754  0.89615245  0.85556539    -0.72300
O1836       O  0.63152995  0.85878822  0.88346103    -0.84500
Zr1837     Zr  0.66359014  0.95078654  0.80613803     2.26400
Zr1838     Zr  0.58793011  0.93033501  0.79100293     2.06300
Zr1839     Zr  0.67543533  0.85318983  0.85030601     2.10000
Zr1840     Zr  0.64036089  0.86126788  0.73809615     1.78800
O1841       O  0.70128429  0.85624362  0.91671074    -0.93300
O1842       O  0.61024560  0.87006081  0.67683609    -0.41100
O1843       O  0.67328714  0.88736596  0.78576651    -0.77700
O1844       O  0.63134419  0.92488155  0.75592001    -0.96400
O1845       O  0.62000970  0.95697255  0.83929453    -0.89700
O1846       O  0.66621826  0.91648086  0.87076533    -0.92500
C1847       C  0.60638152  0.77822126  0.74399277     1.01200
C1848       C  0.64364424  0.77795634  0.89439985     1.14100
C1849       C  0.53414327  0.87385330  0.81023223     1.04900
O1850       O  0.56357190  0.93149875  0.72323536    -0.94700
O1851       O  0.59564613  0.98865881  0.75856176    -0.90400
O1852       O  0.64143197  0.99853517  0.76110717    -0.83600
C1853       C  0.61669100  0.00746782  0.74998521     1.11600
O1854       O  0.59487891  0.89974555  0.96104056    -0.96700
Zr1855     Zr  0.62197532  0.92191083  0.90231680     1.88900
O1856       O  0.66704264  0.00000128  0.86093284    -0.73300
O1857       O  0.55830521  0.97622511  0.82645956    -0.52600
O1858       O  0.58240993  0.96206072  0.91783065    -0.97300
O1859       O  0.64743335  0.91312757  0.96835725    -0.54500
O1860       O  0.64089655  0.98153399  0.91524812    -0.73800
C1861       C  0.65603049  0.00522901  0.89767837     0.98500
O1862       O  0.69728289  0.98861606  0.77130438    -0.62700
O1863       O  0.70391335  0.80159920  0.82381521    -0.57500
O1864       O  0.71270987  0.93334665  0.80253508    -0.94100
O1865       O  0.71967490  0.87491949  0.82694710    -0.92600
O1866       O  0.67915942  0.82368435  0.71319881    -0.92900
O1867       O  0.66454863  0.88609758  0.67776857    -0.91700
C1868       C  0.72823670  0.90488772  0.81060808     1.17300
H1869       H  0.64768780  0.80139628  0.79663959     0.33300
H1870       H  0.63109967  0.93798132  0.72941816     0.44100
H1871       H  0.68032454  0.92582756  0.88943542     0.37700
H1872       H  0.57119409  0.89789100  0.86970488     0.34100
H1873       H  0.59321370  0.85721735  0.68393578     0.25900
H1874       H  0.57012415  0.99753788  0.83277788     0.31900
H1875       H  0.58885207  0.97997696  0.93958047     0.37800
H1876       H  0.69170344  0.82264533  0.73797677     0.32200
H1877       H  0.71439011  0.79299086  0.84896812     0.31100
H1878       H  0.71508414  0.87542754  0.91233132     0.32800
H1879       H  0.66289677  0.93029170  0.96695281     0.31800
H1880       H  0.67884050  0.90173299  0.69072671     0.35800
H1881       H  0.69348582  0.98588636  0.74048331     0.28500
H1882       H  0.55824348  0.78503033  0.86611383     0.32700
H1883       H  0.59629139  0.87243184  0.95849033     0.35600
H1884       H  0.69130013  0.78123771  0.81717826     0.28200
H1885       H  0.69206830  0.01458789  0.77846910     0.41100
H1886       H  0.54964300  0.95165814  0.72650942     0.31100
H1887       H  0.60501138  0.89667247  0.67764343     0.38700
H1888       H  0.65605713  0.88818831  0.96529061     0.30600
H1889       H  0.54560999  0.98511515  0.80398375     0.30600
H1890       H  0.55781160  0.81979942  0.89678348     0.30900
C1891       C  0.59140934  0.63724842  0.64819863    -0.02600
C1892       C  0.66809978  0.64558391  0.99896927    -0.02600
Zr1893     Zr  0.91140995  0.72415039  0.59657477     2.17500
O1894       O  0.93970541  0.75269910  0.65153996    -0.51400
O1895       O  0.91601473  0.77228224  0.54382953    -0.74600
O1896       O  0.96051743  0.71261159  0.58183289    -0.81400
O1897       O  0.84474009  0.76938875  0.63593896    -0.83200
O1898       O  0.96453192  0.65478972  0.55238013    -0.78800
O1899       O  0.89078699  0.77713714  0.63503561    -0.90400
O1900       O  0.88729938  0.75530648  0.98915129    -0.76400
O1901       O  0.91388643  0.68852534  0.53215317    -0.85900
O1902       O  0.86786231  0.73153346  0.56237924    -0.85600
O1903       O  0.92049236  0.66127481  0.61760081    -0.72300
O1904       O  0.87794299  0.70134726  0.64512393    -0.84500
Zr1905     Zr  0.84631706  0.60941527  0.56578066     2.26400
Zr1906     Zr  0.92131598  0.62557457  0.55275238     2.06300
Zr1907     Zr  0.83477133  0.70744656  0.60925701     2.10000
Zr1908     Zr  0.87077354  0.69631666  0.49803264     1.78800
O1909       O  0.81277278  0.70211750  0.67810515    -0.93300
O1910       O  0.89719648  0.68736891  0.93667005    -0.41100
O1911       O  0.83750058  0.67212941  0.54459100    -0.77700
O1912       O  0.87877499  0.63287365  0.51630906    -0.96400
O1913       O  0.88912543  0.60145230  0.60074948    -0.89700
O1914       O  0.84267572  0.64469639  0.63041164    -0.92500
C1915       C  0.90472352  0.77920376  0.50774521     1.01200
C1916       C  0.86618346  0.78812052  0.64417199     1.14100
C1917       C  0.97440941  0.68554365  0.56469566     1.04900
O1918       O  0.94050217  0.61088086  0.98436109    -0.94700
O1919       O  0.91128972  0.56534711  0.52266348    -0.90400
O1920       O  0.86529002  0.55813981  0.52369356    -0.83600
C1921       C  0.88962558  0.54729600  0.51379874     1.11600
O1922       O  0.90604760  0.66629610  0.72771509    -0.96700
Zr1923     Zr  0.88636258  0.63799460  0.66402995     1.88900
O1924       O  0.83909297  0.56440485  0.62157810    -0.73300
O1925       O  0.95251193  0.58453254  0.59139553    -0.52600
O1926       O  0.92762402  0.60639113  0.69005288    -0.97300
O1927       O  0.85387026  0.63651563  0.72258486    -0.54500
O1928       O  0.87238085  0.57478575  0.67056798    -0.73800
C1929       C  0.85351398  0.55507446  0.65408883     0.98500
O1930       O  0.81443467  0.56452564  0.02772357    -0.62700
O1931       O  0.79743212  0.75058786  0.59258739    -0.57500
O1932       O  0.79837657  0.62617529  0.56151451    -0.94100
O1933       O  0.79267469  0.68743846  0.57579241    -0.92600
O1934       O  0.82977052  0.73421735  0.97937658    -0.92900
O1935       O  0.84326017  0.67081966  0.93824399    -0.91700
C1936       C  0.78394784  0.65611148  0.56261119     1.17300
H1937       H  0.86317077  0.75716072  0.55711620     0.33300
H1938       H  0.87632315  0.61613502  0.99095471     0.44100
H1939       H  0.82800680  0.63595039  0.64784120     0.37700
H1940       H  0.93814072  0.65954013  0.63154798     0.34100
H1941       H  0.91393007  0.70128252  0.94348765     0.25900
H1942       H  0.94114185  0.56358175  0.59989576     0.31900
H1943       H  0.92638159  0.58062929  0.67919741     0.37800
H1944       H  0.82346498  0.74566136  0.00648678     0.32200
H1945       H  0.79324140  0.76414349  0.61943029     0.31100
H1946       H  0.81483705  0.72669895  0.69191859     0.32800
H1947       H  0.85096294  0.66263937  0.73164192     0.31800
H1948       H  0.84761585  0.64394839  0.93708057     0.35800
H1949       H  0.79925871  0.55834484  0.04693659     0.28500
H1950       H  0.95389838  0.76627500  0.63621281     0.32700
H1951       H  0.89806433  0.69171330  0.72880707     0.35600
H1952       H  0.80568409  0.76890889  0.57372951     0.28200
H1953       H  0.80583907  0.57842110  0.00403413     0.41100
H1954       H  0.95366488  0.59013923  0.98936169     0.31100
H1955       H  0.90332514  0.66108172  0.93675799     0.38700
H1956       H  0.86401510  0.62480577  0.74639276     0.30600
H1957       H  0.96485648  0.57390198  0.56929474     0.30600
H1958       H  0.94967991  0.73180125  0.66509993     0.30900
C1959       C  0.91776258  0.91262528  0.91032075    -0.02600
C1960       C  0.84407097  0.91956037  0.75509755    -0.02600
Zr1961     Zr  0.41006514  0.58281664  0.60029613     2.17500
O1962       O  0.44206645  0.54220848  0.56153050    -0.51400
O1963       O  0.41539768  0.53725380  0.65746346    -0.74600
O1964       O  0.45902636  0.60106441  0.60722268    -0.81400
O1965       O  0.34479075  0.54764181  0.54462427    -0.83200
O1966       O  0.45917299  0.65253103  0.64896135    -0.78800
O1967       O  0.39031233  0.53490455  0.55161518    -0.90400
O1968       O  0.38755017  0.55629823  0.71117232    -0.76400
O1969       O  0.40978930  0.62093483  0.66318453    -0.85900
O1970       O  0.36561898  0.57870918  0.63150792    -0.85600
O1971       O  0.41830722  0.64521059  0.57752717    -0.72300
O1972       O  0.37685509  0.60600848  0.54972957    -0.84500
Zr1973     Zr  0.34201959  0.70368674  0.62178180     2.26400
Zr1974     Zr  0.41601946  0.68337024  0.64086102     2.06300
Zr1975     Zr  0.33276110  0.60414619  0.58245773     2.10000
Zr1976     Zr  0.36609789  0.61573072  0.69439294     1.78800
O1977       O  0.30674636  0.60738500  0.51627663    -0.93300
O1978       O  0.39483858  0.62734983  0.75658010    -0.41100
O1979       O  0.33360312  0.64167878  0.64524172    -0.77700
O1980       O  0.37291085  0.67902284  0.67521260    -0.96400
O1981       O  0.38534530  0.70707753  0.58882468    -0.89700
O1982       O  0.34068782  0.66564679  0.55891718    -0.92500
C1983       C  0.40481043  0.53310680  0.69448813     1.01200
C1984       C  0.36620489  0.52760612  0.53655925     1.14100
C1985       C  0.47153486  0.62711254  0.62766190     1.04900
O1986       O  0.44467674  0.70400538  0.69977453    -0.94700
O1987       O  0.40511667  0.74123664  0.67773842    -0.90400
O1988       O  0.35956311  0.75269264  0.66958790    -0.83600
C1989       C  0.38331860  0.76085249  0.68450170     1.11600
O1990       O  0.40805111  0.63424164  0.46940766    -0.96700
Zr1991     Zr  0.38500910  0.66747500  0.52738663     1.88900
O1992       O  0.34117635  0.74745663  0.56242091    -0.73300
O1993       O  0.43806749  0.72414116  0.59126528    -0.52600
O1994       O  0.42511834  0.69965694  0.50279315    -0.97300
O1995       O  0.35655240  0.65669898  0.46470630    -0.54500
O1996       O  0.36869363  0.72806595  0.50834420    -0.73800
C1997       C  0.35254756  0.75181605  0.52604803     0.98500
O1998       O  0.30768373  0.75262109  0.63456008    -0.62700
O1999       O  0.30619824  0.55252536  0.60731502    -0.57500
O2000       O  0.29466591  0.68580466  0.63463852    -0.94100
O2001       O  0.28842258  0.62842225  0.60687570    -0.92600
O2002       O  0.32740158  0.57761777  0.71217902    -0.92900
O2003       O  0.33985822  0.64158093  0.75396341    -0.91700
C2004       C  0.27953452  0.65790668  0.62623289     1.17300
H2005       H  0.36128502  0.55337053  0.63739450     0.33300
H2006       H  0.37210641  0.69297187  0.70160389     0.44100
H2007       H  0.32632695  0.67420366  0.53998143     0.37700
H2008       H  0.43594496  0.64703537  0.56410206     0.34100
H2009       H  0.41196053  0.61283530  0.75137920     0.25900
H2010       H  0.44333963  0.74601935  0.60848156     0.31900
H2011       H  0.41998761  0.70870819  0.47420728     0.37800
H2012       H  0.33379904  0.56266553  0.73657667     0.32200
H2013       H  0.29811624  0.56112085  0.63461667     0.31100
H2014       H  0.28953189  0.59453906  0.52222083     0.32800
H2015       H  0.33673095  0.66740461  0.96952231     0.31800
H2016       H  0.34247156  0.62380163  0.77737454     0.35800
H2017       H  0.31733004  0.77631869  0.63253974     0.28500
H2018       H  0.45551581  0.53316164  0.58287905     0.32700
H2019       H  0.40776903  0.61394572  0.97520156     0.35600
H2020       H  0.29046805  0.55105410  0.58741416     0.28200
H2021       H  0.29558668  0.75237524  0.60916586     0.41100
H2022       H  0.44232543  0.68528804  0.72204608     0.31100
H2023       H  0.40025544  0.65341360  0.75394916     0.38700
H2024       H  0.34971241  0.63136178  0.46813374     0.30600
H2025       H  0.45551168  0.71141005  0.58351543     0.30600
H2026       H  0.45247542  0.55842863  0.54269808     0.30900
C2027       C  0.41467859  0.89138933  0.78676273    -0.02600
C2028       C  0.33758713  0.89606625  0.93661168    -0.02600
Zr2029     Zr  0.09728069  0.97006225  0.85503456     2.17500
O2030       O  0.07054456  0.01188832  0.80995884    -0.51400
O2031       O  0.09573135  0.51676123  0.91874462    -0.74600
O2032       O  0.04685675  0.96044842  0.85900279    -0.81400
O2033       O  0.16547875  0.50048788  0.80766126    -0.83200
O2034       O  0.04059316  0.90188536  0.88177072    -0.78800
O2035       O  0.12097054  0.51813631  0.81542101    -0.90400
O2036       O  0.12380289  0.49776110  0.97257537    -0.76400
O2037       O  0.09396088  0.93429893  0.91779539    -0.85900
O2038       O  0.14108990  0.97041012  0.88946012    -0.85600
O2039       O  0.08635224  0.90892712  0.83015541    -0.72300
O2040       O  0.13007680  0.94318267  0.80585499    -0.84500
Zr2041     Zr  0.15872897  0.84570553  0.87953380     2.26400
Zr2042     Zr  0.08409653  0.87307203  0.89344201     2.06300
Zr2043     Zr  0.17342179  0.94240488  0.84140440     2.10000
Zr2044     Zr  0.13767070  0.93443749  0.95173121     1.78800
O2045       O  0.19851361  0.93945774  0.77464456    -0.93300
O2046       O  0.10822812  0.92520739  0.01283865    -0.41100
O2047       O  0.17054986  0.90651231  0.90439687    -0.77700
O2048       O  0.12706076  0.87308873  0.92995178    -0.96400
O2049       O  0.11552882  0.84524271  0.84441193    -0.89700
O2050       O  0.16313513  0.88133415  0.81668416    -0.92500
C2051       C  0.10730737  0.52107168  0.95527153     1.01200
C2052       C  0.14531090  0.52283052  0.80093674     1.14100
C2053       C  0.03153821  0.93308645  0.86876402     1.04900
O2054       O  0.05895809  0.87506156  0.96012881    -0.94700
O2055       O  0.09111444  0.81426567  0.92654206    -0.90400
O2056       O  0.13652477  0.79933594  0.92179914    -0.83600
C2057       C  0.11202408  0.79348159  0.93409605     1.11600
O2058       O  0.09823055  0.91563498  0.72433606    -0.96700
Zr2059     Zr  0.11940568  0.88195728  0.78286414     1.88900
O2060       O  0.16141179  0.79889445  0.82270616    -0.73300
O2061       O  0.05470333  0.82842758  0.85803084    -0.52600
O2062       O  0.07802544  0.85257109  0.75694525    -0.97300
O2063       O  0.14782974  0.88521580  0.71964580    -0.54500
O2064       O  0.13312213  0.81843356  0.77026291    -0.73800
C2065       C  0.14857356  0.79378921  0.78740099     0.98500
O2066       O  0.18509190  0.79745562  0.91615686    -0.62700
O2067       O  0.20177179  0.99028969  0.87304769    -0.57500
O2068       O  0.20760025  0.85760977  0.88686540    -0.94100
O2069       O  0.21697257  0.91378245  0.85958040    -0.92600
O2070       O  0.17829113  0.96682259  0.97553127    -0.92900
O2071       O  0.15989024  0.90467132  0.01218684    -0.91700
C2072       C  0.22400224  0.88345929  0.87752499     1.17300
H2073       H  0.14925919  0.49640012  0.89732506     0.33300
H2074       H  0.12639783  0.85940834  0.95600124     0.44100
H2075       H  0.17729296  0.87103683  0.79842775     0.37700
H2076       H  0.06916872  0.90911094  0.81486050     0.34100
H2077       H  0.09782679  0.94342051  0.51546649     0.25900
H2078       H  0.03943749  0.82494699  0.87804553     0.31900
H2079       H  0.07766909  0.82860432  0.77173165     0.37800
H2080       H  0.19449126  0.46479241  0.96279686     0.32200
H2081       H  0.21022514  0.97888245  0.89850676     0.31100
H2082       H  0.21052875  0.91709766  0.77628239     0.32800
H2083       H  0.16108237  0.86418181  0.72170434     0.31800
H2084       H  0.16882213  0.88207973  0.00000374     0.35800
H2085       H  0.19988935  0.78932500  0.89650270     0.28500
H2086       H  0.05907179  0.52814832  0.83544780     0.32700
H2087       H  0.08367828  0.93122000  0.73783777     0.35600
H2088       H  0.22271475  0.48536370  0.84550757     0.28200
H2089       H  0.19441012  0.80982385  0.94035463     0.41100
H2090       H  0.04862737  0.85182013  0.96030281     0.31100
H2091       H  0.08974800  0.93353733  0.00346071     0.38700
H2092       H  0.15895970  0.90745745  0.72435470     0.30600
H2093       H  0.04626449  0.84182410  0.83386581     0.30600
H2094       H  0.05922959  0.99580957  0.79149937     0.30900
C2095       C  0.09248372  0.66598209  0.53738491    -0.02600
C2096       C  0.16512021  0.65221671  0.69194588    -0.02600
C2097       C  0.11201393  0.66437534  0.57713999    -0.00300
C2098       C  0.10861584  0.63420373  0.60459117    -0.12100
C2099       C  0.12659016  0.62634656  0.63832461     0.02000
C2100       C  0.14683115  0.65229224  0.65057636    -0.00400
C2101       C  0.15122196  0.68117523  0.62188519    -0.12100
C2102       C  0.13519960  0.68695766  0.58562074     0.01900
H2103       H  0.09233868  0.61500916  0.59800831     0.14800
H2104       H  0.16750304  0.70037999  0.62853159     0.14800
C2105       C  0.14556142  0.71488506  0.55801662     0.36500
C2106       C  0.12506396  0.58942129  0.65483561     0.36400
N2107       N  0.15502852  0.73714270  0.53684834    -0.43900
N2108       N  0.12372453  0.55928460  0.66647778    -0.43900
C2109       C  0.15119864  0.75705798  0.76497034    -0.00300
C2110       C  0.16894343  0.72934169  0.78099773    -0.12100
C2111       C  0.17264476  0.69502921  0.75975405     0.02000
C2112       C  0.15868772  0.68756753  0.72058151    -0.00400
C2113       C  0.13881368  0.71417197  0.70802233    -0.12100
C2114       C  0.13557097  0.74845509  0.72822325     0.01900
H2115       H  0.18051662  0.73465115  0.80988864     0.14800
H2116       H  0.12543198  0.70906205  0.68160728     0.14800
C2117       C  0.11618778  0.77403093  0.70884116     0.36500
C2118       C  0.19213488  0.66908209  0.77801205     0.36400
N2119       N  0.10084266  0.79413699  0.69240493    -0.43900
N2120       N  0.20779960  0.64861357  0.79312532    -0.43900
C2121       C  0.15084328  0.55587854  0.77426053    -0.00300
C2122       C  0.13022795  0.58302323  0.76838110    -0.12100
C2123       C  0.13430306  0.61391132  0.74271549     0.02000
C2124       C  0.15973992  0.61853764  0.72123223    -0.00400
C2125       C  0.18070268  0.59221905  0.72971799    -0.12100
C2126       C  0.17647655  0.56110870  0.75436929     0.01900
H2127       H  0.11052478  0.57999911  0.78350826     0.14800
H2128       H  0.20112842  0.59560343  0.71781947     0.14800
C2129       C  0.19938646  0.53527254  0.75770115     0.36500
C2130       C  0.11116124  0.63907351  0.73763989     0.36400
N2131       N  0.21799774  0.51497717  0.75972140    -0.43900
N2132       N  0.09214450  0.65846864  0.73405453    -0.43900
C2133       C  0.10743985  0.76147363  0.96039402    -0.00300
C2134       C  0.10924994  0.72636090  0.94180672    -0.12100
C2135       C  0.10258370  0.69508640  0.96475822     0.02000
C2136       C  0.09707062  0.69838983  0.00938137    -0.00400
C2137       C  0.09323680  0.73473171  0.02631870    -0.12100
C2138       C  0.09847563  0.76590107  0.00246982     0.01900
H2139       H  0.11405556  0.72370863  0.90821001     0.14800
H2140       H  0.08700968  0.73750114  0.55977127     0.14800
C2141       C  0.09553069  0.80213045  0.02225315     0.36500
C2142       C  0.09774112  0.66240547  0.93914642     0.36400
N2143       N  0.09326647  0.83124714  0.03782090    -0.43900
N2144       N  0.09351705  0.63697390  0.91748196    -0.43900
C2145       C  0.10279782  0.55626179  0.97839698    -0.00300
C2146       C  0.12501842  0.57943143  0.98369633    -0.12100
C2147       C  0.12212591  0.61400675  0.00390709     0.02000
C2148       C  0.09598175  0.62671922  0.01930130    -0.00400
C2149       C  0.07464105  0.60058806  0.01793801    -0.12100
C2150       C  0.07764131  0.56638562  0.99682445     0.01900
H2151       H  0.14475997  0.57077121  0.97079930     0.14800
H2152       H  0.05819468  0.60438104  0.53152806     0.14800
C2153       C  0.05499921  0.54142008  0.99636024     0.36500
C2154       C  0.14645676  0.63582942  0.00531803     0.36400
N2155       N  0.03682605  0.52145586  0.99661940    -0.43900
N2156       N  0.16688928  0.65137794  0.00472780    -0.43900
C2157       C  0.30709834  0.89091159  0.92140049    -0.00300
C2158       C  0.30116452  0.87709525  0.87972525    -0.12100
C2159       C  0.27433387  0.87287916  0.86492296     0.02000
C2160       C  0.25242942  0.88023248  0.89241064    -0.00400
C2161       C  0.25769243  0.88841319  0.93506815    -0.12100
C2162       C  0.28445952  0.89271256  0.95011642     0.01900
H2163       H  0.31731739  0.86873080  0.85811346     0.14800
H2164       H  0.24058370  0.89283598  0.95659152     0.14800
C2165       C  0.28697126  0.90138013  0.99483914     0.36500
C2166       C  0.26979645  0.85986811  0.82186011     0.36400
N2167       N  0.28933934  0.89895298  0.53068428    -0.43900
N2168       N  0.26628249  0.84904220  0.78748421    -0.43900
C2169       C  0.39639521  0.89241743  0.82797368    -0.00300
C2170       C  0.37044010  0.91025710  0.82529538    -0.12100
C2171       C  0.35385412  0.91655859  0.86083368     0.02000
C2172       C  0.35825851  0.89570411  0.89827225    -0.00400
C2173       C  0.38336127  0.87546177  0.90053292    -0.12100
C2174       C  0.40230391  0.87400567  0.86701580     0.01900
H2175       H  0.36384200  0.92233369  0.79556097     0.14800
H2176       H  0.38882673  0.86088994  0.92930037     0.14800
C2177       C  0.42675236  0.85185327  0.87462566     0.36500
C2178       C  0.33213234  0.94395656  0.85617598     0.36400
N2179       N  0.44610970  0.83387967  0.88171847    -0.43900
N2180       N  0.31523603  0.96622301  0.85007259    -0.43900
C2181       C  0.25034532  0.65855402  0.64129632    -0.00300
C2182       C  0.23360515  0.62863567  0.63060498    -0.12100
C2183       C  0.20681839  0.62593403  0.64616565     0.02000
C2184       C  0.19555443  0.65338079  0.67465294    -0.00400
C2185       C  0.21202818  0.68465886  0.68232508    -0.12100
C2186       C  0.23882317  0.68713877  0.66720367     0.01900
H2187       H  0.24151026  0.60665654  0.60993136     0.14800
H2188       H  0.20420112  0.70865971  0.69941281     0.14800
C2189       C  0.25345383  0.71981404  0.67982879     0.36500
C2190       C  0.19188628  0.59403688  0.63188073     0.36400
N2191       N  0.26414449  0.74644931  0.69122990    -0.43900
N2192       N  0.18104825  0.56782016  0.61953890    -0.43900
C2193       C  0.34452663  0.85753011  0.46226954    -0.00300
C2194       C  0.34314892  0.82345087  0.43945575    -0.12100
C2195       C  0.34510082  0.78912438  0.45925711     0.02000
C2196       C  0.34799943  0.78734349  0.50373112    -0.00400
C2197       C  0.34896024  0.82040112  0.52723608    -0.12100
C2198       C  0.34527988  0.85832455  0.00939995     0.01900
H2199       H  0.34038900  0.82365931  0.40522685     0.14800
H2200       H  0.35144525  0.81907802  0.56152289     0.14800
C2201       C  0.34578527  0.88955449  0.03845899     0.36500
C2202       C  0.34321057  0.75620946  0.43289569     0.36400
N2203       N  0.34612176  0.91349759  0.06332691    -0.43900
N2204       N  0.34165027  0.73016313  0.41125168    -0.43900
C2205       C  0.34386345  0.93336713  0.96065743    -0.00300
C2206       C  0.37163550  0.93528962  0.47722272    -0.12100
C2207       C  0.37838914  0.96576311  0.50338449     0.02000
C2208       C  0.35896706  0.99465025  0.51066525    -0.00400
C2209       C  0.33355732  0.99218544  0.48955930    -0.12100
C2210       C  0.32650038  0.96161247  0.46420827     0.01900
H2211       H  0.38543969  0.91476541  0.97447763     0.14800
H2212       H  0.31866050  0.01478242  0.49254747     0.14800
C2213       C  0.30057966  0.96553147  0.44228618     0.36500
C2214       C  0.40463305  0.96468996  0.52463855     0.36400
N2215       N  0.27966096  0.97006909  0.42541976    -0.43900
N2216       N  0.42560958  0.96292677  0.54185534    -0.43900
C2217       C  0.40755903  0.99990394  0.72091015    -0.00300
C2218       C  0.41938545  0.96879365  0.70002747    -0.12100
C2219       C  0.42329269  0.93462587  0.72067154     0.02000
C2220       C  0.41407216  0.92994019  0.76325036    -0.00400
C2221       C  0.40601184  0.96301108  0.78512344    -0.12100
C2222       C  0.40197825  0.99685689  0.76474214     0.01900
H2223       H  0.42494972  0.97070281  0.66681197     0.14800
H2224       H  0.40199805  0.96294788  0.81878365     0.14800
C2225       C  0.39914721  0.52900188  0.78909265     0.36500
C2226       C  0.43544661  0.90474970  0.69582470     0.36400
N2227       N  0.39322402  0.55452548  0.81001148    -0.43900
N2228       N  0.44502666  0.88143617  0.67469819    -0.43900
C2229       C  0.40188463  0.85846674  0.76036419    -0.00300
C2230       C  0.40690489  0.82221993  0.77547195    -0.12100
C2231       C  0.39975316  0.79060661  0.75233245     0.02000
C2232       C  0.38630314  0.79388145  0.71291706    -0.00400
C2233       C  0.37733439  0.82923212  0.70025585    -0.12100
C2234       C  0.38397436  0.86124597  0.72428947     0.01900
H2235       H  0.41826778  0.81814119  0.80451837     0.14800
H2236       H  0.36528255  0.83190322  0.67134695     0.14800
C2237       C  0.37022754  0.89532737  0.71246259     0.36500
C2238       C  0.40623647  0.75489039  0.77028713     0.36400
N2239       N  0.35878493  0.92231293  0.70271858    -0.43900
N2240       N  0.41123976  0.72642385  0.78514436    -0.43900
C2241       C  0.94661293  0.92141991  0.89139225    -0.00300
C2242       C  0.95852087  0.95687201  0.89701287    -0.12100
C2243       C  0.98567221  0.96351588  0.88543227     0.02000
C2244       C  0.00121661  0.93531728  0.86555856    -0.00400
C2245       C  0.98776962  0.90333595  0.85150303    -0.12100
C2246       C  0.96083277  0.89627079  0.86363947     0.01900
H2247       H  0.94715610  0.97969379  0.91147336     0.14800
H2248       H  0.99933344  0.88193329  0.83439599     0.14800
C2249       C  0.95028923  0.86049132  0.85196989     0.36500
C2250       C  0.99690280  0.50151904  0.90511504     0.36400
N2251       N  0.94283635  0.83125782  0.84280275    -0.43900
N2252       N  0.00534596  0.53016573  0.91450153    -0.43900
C2253       C  0.89830625  0.91185804  0.86983702    -0.00300
C2254       C  0.89702103  0.94465918  0.84566255    -0.12100
C2255       C  0.87956197  0.94966731  0.81054200     0.02000
C2256       C  0.86271529  0.92036470  0.79599361    -0.00400
C2257       C  0.86288786  0.88825078  0.82127564    -0.12100
C2258       C  0.88116369  0.88268103  0.85545007     0.01900
H2259       H  0.90919392  0.96791102  0.85582670     0.14800
H2260       H  0.85015496  0.86541477  0.81143879     0.14800
C2261       C  0.88294772  0.84521280  0.87051188     0.36500
C2262       C  0.87857382  0.98662775  0.79385489     0.36400
N2263       N  0.88382223  0.81467243  0.88111972    -0.43900
N2264       N  0.87904504  0.51781938  0.78231676    -0.43900
C2265       C  0.84952607  0.51873654  0.67369370    -0.00300
C2266       C  0.87284369  0.49697023  0.68147175    -0.12100
C2267       C  0.86951393  0.96567335  0.70466586     0.02000
C2268       C  0.84515397  0.95501498  0.72617961    -0.00400
C2269       C  0.82286484  0.47445744  0.71228474    -0.12100
C2270       C  0.82408899  0.50646686  0.68756154     0.01900
H2271       H  0.89239230  0.50575531  0.66930277     0.14800
H2272       H  0.80275208  0.46547488  0.72091564     0.14800
C2273       C  0.79911621  0.52691897  0.67816437     0.36500
C2274       C  0.89534894  0.94580061  0.70603780     0.36400
N2275       N  0.77911489  0.54333303  0.67054960    -0.43900
N2276       N  0.91716966  0.93277241  0.70419446    -0.43900
C2277       C  0.85289433  0.88646003  0.72408403    -0.00300
C2278       C  0.83574296  0.87936075  0.68857825    -0.12100
C2279       C  0.83953050  0.84808004  0.66201934     0.02000
C2280       C  0.86226666  0.82384216  0.66805438    -0.00400
C2281       C  0.88132023  0.83295996  0.69950846    -0.12100
C2282       C  0.87731913  0.86356621  0.72688109     0.01900
H2283       H  0.81805496  0.89737909  0.68310931     0.14800
H2284       H  0.89952802  0.81549563  0.70327912     0.14800
C2285       C  0.90059203  0.87158030  0.75346409     0.36500
C2286       C  0.81961428  0.84202509  0.62879380     0.36400
N2287       N  0.91998384  0.87825918  0.77309504    -0.43900
N2288       N  0.80322615  0.83809308  0.60252146    -0.43900
C2289       C  0.89092165  0.50719855  0.99546168    -0.00300
C2290       C  0.91417965  0.48577844  0.00571981    -0.12100
C2291       C  0.92165972  0.45418883  0.98189910     0.02000
C2292       C  0.90788425  0.94430135  0.94174964    -0.00400
C2293       C  0.88127351  0.46326158  0.93828394    -0.12100
C2294       C  0.87332656  0.49409769  0.96317488     0.01900
H2295       H  0.92879437  0.49750667  0.52869322     0.14800
H2296       H  0.86730881  0.95245506  0.91323579     0.14800
C2297       C  0.84748646  0.51220386  0.95330178     0.36500
C2298       C  0.94527399  0.43353822  0.99701877     0.36400
N2299       N  0.82658608  0.52590265  0.94469689    -0.43900
N2300       N  0.96993172  0.92558930  0.00209304    -0.43900
C2301       C  0.90850357  0.81284381  0.98898176    -0.00300
C2302       C  0.93468772  0.82152133  0.97558378    -0.12100
C2303       C  0.93935441  0.85335991  0.95172534     0.02000
C2304       C  0.91679230  0.87701459  0.93864881    -0.00400
C2305       C  0.89101306  0.86933492  0.95683632    -0.12100
C2306       C  0.88671984  0.83777652  0.98092923     0.01900
H2307       H  0.95167317  0.80296192  0.98356559     0.14800
H2308       H  0.87351051  0.88736003  0.95033306     0.14800
C2309       C  0.86076086  0.83436623  0.49844510     0.36500
C2310       C  0.96788494  0.86047562  0.94482628     0.36400
N2311       N  0.83927577  0.82916698  0.51215095    -0.43900
N2312       N  0.99111672  0.86483642  0.94066610    -0.43900
C2313       C  0.06134961  0.67232918  0.54862130    -0.00300
C2314       C  0.04294410  0.67117516  0.51365893    -0.12100
C2315       C  0.01508555  0.67911201  0.51782062     0.02000
C2316       C  0.00408992  0.68814028  0.55789628    -0.00400
C2317       C  0.02176167  0.69160818  0.59267585    -0.12100
C2318       C  0.05011723  0.68484356  0.58847555     0.01900
H2319       H  0.04952184  0.66591686  0.98445889     0.14800
H2320       H  0.01325869  0.69898771  0.62355280     0.14800
C2321       C  0.06619712  0.69426559  0.62527449     0.36500
C2322       C  0.99810747  0.67808234  0.48006580     0.36400
N2323       N  0.07784592  0.70300148  0.65573270    -0.43900
N2324       N  0.98275118  0.67460479  0.95279730    -0.43900
C2325       C  0.70115335  0.64527002  0.51587783    -0.00300
C2326       C  0.71690547  0.67628334  0.50514736    -0.12100
C2327       C  0.74326124  0.68135723  0.52148159     0.02000
C2328       C  0.75574372  0.65367449  0.54635568    -0.00400
C2329       C  0.74183218  0.62108279  0.55332024    -0.12100
C2330       C  0.71504315  0.61655940  0.53905403     0.01900
H2331       H  0.70798735  0.69825025  0.97925733     0.14800
H2332       H  0.75165666  0.59932286  0.57179289     0.14800
C2333       C  0.70244939  0.58317235  0.55295423     0.36500
C2334       C  0.75720583  0.71484734  0.51103805     0.36400
N2335       N  0.69415905  0.55587002  0.56600221    -0.43900
N2336       N  0.76834576  0.73949799  0.99458930    -0.43900
C2337       C  0.56039488  0.63461842  0.63576343    -0.00300
C2338       C  0.54282362  0.66567646  0.64142603    -0.12100
C2339       C  0.51468775  0.66403184  0.63669042     0.02000
C2340       C  0.50203386  0.62989929  0.62710468    -0.00400
C2341       C  0.51909053  0.59900591  0.61816034    -0.12100
C2342       C  0.54787232  0.60108398  0.62176854     0.01900
H2343       H  0.55036516  0.69228178  0.65072549     0.14800
H2344       H  0.50996431  0.57293396  0.60924807     0.14800
C2345       C  0.56381165  0.56820730  0.61105252     0.36500
C2346       C  0.50009723  0.69901491  0.64257214     0.36400
N2347       N  0.57624259  0.54155603  0.60239255    -0.43900
N2348       N  0.49000407  0.72795777  0.64797760    -0.43900
C2349       C  0.65066621  0.64407371  0.54152457    -0.00300
C2350       C  0.62234932  0.64265430  0.53254026    -0.12100
C2351       C  0.60256103  0.63921441  0.56438155     0.02000
C2352       C  0.61059014  0.63848842  0.60826816    -0.00400
C2353       C  0.63840109  0.64537931  0.61691546    -0.12100
C2354       C  0.65808915  0.64846318  0.58536352     0.01900
H2355       H  0.61569037  0.64227587  0.49955168     0.14800
H2356       H  0.64489323  0.64858142  0.64983986     0.14800
C2357       C  0.68438837  0.66015206  0.60116088     0.36500
C2358       C  0.57462441  0.64007354  0.54925845     0.36400
N2359       N  0.70478142  0.67016893  0.61576238    -0.43900
N2360       N  0.55254314  0.64153569  0.53572619    -0.43900
C2361       C  0.75794919  0.90652363  0.79955663    -0.00300
C2362       C  0.77291486  0.93747546  0.81183298    -0.12100
C2363       C  0.80063894  0.94092344  0.80071229     0.02000
C2364       C  0.81409356  0.91410304  0.77348928    -0.00400
C2365       C  0.79939283  0.88119686  0.76563760    -0.12100
C2366       C  0.77183023  0.87761592  0.77734848     0.01900
H2367       H  0.76290357  0.95909115  0.83081001     0.14800
H2368       H  0.80913526  0.85737538  0.75056578     0.14800
C2369       C  0.75807135  0.84433611  0.76432740     0.36500
C2370       C  0.81417825  0.97273252  0.81830326     0.36400
N2371       N  0.74740306  0.81753513  0.75342061    -0.40300
N2372       N  0.82184398  0.50584631  0.82090415    -0.43900
C2373       C  0.66191870  0.54062610  0.92139897    -0.00300
C2374       C  0.64620312  0.54610901  0.95807618    -0.12100
C2375       C  0.64823797  0.57729034  0.98434723     0.02000
C2376       C  0.66496935  0.60772733  0.97282950    -0.00400
C2377       C  0.68161735  0.60131471  0.93619106    -0.12100
C2378       C  0.67985504  0.56901145  0.91031317     0.01900
H2379       H  0.62924583  0.02419241  0.96792707     0.14800
H2380       H  0.69580384  0.62239603  0.92707721     0.14800
C2381       C  0.69654808  0.56603351  0.87264621     0.36500
C2382       C  0.63550516  0.57212413  0.02497913     0.36400
N2383       N  0.70975954  0.56365307  0.84224587    -0.43900
N2384       N  0.62940769  0.56109012  0.56057108    -0.43900
C2385       C  0.65926300  0.68073092  0.97178612    -0.00300
C2386       C  0.65268411  0.67768031  0.92782921    -0.12100
C2387       C  0.64882026  0.70886463  0.90220587     0.02000
C2388       C  0.64742576  0.74443639  0.92053495    -0.00400
C2389       C  0.65155167  0.74833251  0.96424057    -0.12100
C2390       C  0.65774971  0.71764111  0.98973589     0.01900
H2391       H  0.65121795  0.65128404  0.91190811     0.14800
H2392       H  0.65079268  0.77591130  0.97841579     0.14800
C2393       C  0.66324435  0.72642251  0.03383987     0.36500
C2394       C  0.64973168  0.70397148  0.85662912     0.36400
N2395       N  0.66491921  0.73368155  0.56954571    -0.43900
N2396       N  0.65164944  0.70016863  0.82016918    -0.43900
C2397       C  0.59887381  0.60256513  0.67696973    -0.00300
C2398       C  0.62247628  0.57970889  0.66908985    -0.12100
C2399       C  0.63069743  0.55079902  0.69582504     0.02000
C2400       C  0.61434190  0.54144666  0.73045638    -0.00400
C2401       C  0.58998803  0.56183948  0.73741520    -0.12100
C2402       C  0.58197500  0.59139803  0.71147923     0.01900
H2403       H  0.63493329  0.58289706  0.64146746     0.14800
H2404       H  0.57678628  0.55436499  0.76341967     0.14800
C2405       C  0.55620741  0.60962685  0.72227389     0.36500
C2406       C  0.64994540  0.02789466  0.67612264     0.36400
N2407       N  0.53554034  0.62376190  0.73148680    -0.43900
N2408       N  0.66831886  0.00968242  0.66463043    -0.43900
C2409       C  0.60133221  0.74270119  0.72145670    -0.00300
C2410       C  0.60216849  0.74233260  0.67712242    -0.12100
C2411       C  0.59884880  0.70986237  0.65334148     0.02000
C2412       C  0.59659240  0.67470954  0.67386246    -0.00400
C2413       C  0.59760292  0.67581162  0.71900984    -0.12100
C2414       C  0.59767757  0.70909758  0.74238450     0.01900
H2415       H  0.60435266  0.76824091  0.66056431     0.14800
H2416       H  0.59776017  0.65118869  0.73753515     0.14800
C2417       C  0.59290462  0.70767604  0.78761193     0.36500
C2418       C  0.59617080  0.71542667  0.60809378     0.36400
N2419       N  0.58828760  0.70629703  0.82360611    -0.43900
N2420       N  0.59417877  0.72186448  0.57225059    -0.43900
C2421       C  0.50385361  0.87228755  0.80931291    -0.00300
C2422       C  0.48911482  0.89899729  0.83309332    -0.12100
C2423       C  0.46095130  0.90544945  0.82679228     0.02000
C2424       C  0.44605933  0.88411812  0.79620768    -0.00400
C2425       C  0.46165667  0.85763544  0.77197661    -0.12100
C2426       C  0.48985268  0.85145489  0.77854133     0.01900
H2427       H  0.50003632  0.91601229  0.85599079     0.14800
H2428       H  0.45239198  0.84230866  0.74615556     0.14800
C2429       C  0.50442124  0.82564213  0.75089112     0.36500
C2430       C  0.44829931  0.93350796  0.85382252     0.36400
N2431       N  0.51615083  0.80508959  0.72864456    -0.43900
N2432       N  0.43895248  0.95570462  0.87671819    -0.43900
loop_ 
_geom_bond_atom_site_label_1 
_geom_bond_atom_site_label_2 
_geom_bond_distance 
_geom_bond_site_symmetry_2 
_ccdc_geom_bond_type 
Zr1           O2   2.438       .  S
Zr1           O3   2.421       .  S
Zr1           O4   2.484       .  S
Zr1           O7   2.451       .  S
Zr1           O9   2.382       .  S
Zr1          O10   2.392       .  S
Zr1          O11   2.400       .  S
Zr1          O12   2.402       .  S
O2           H58   0.990       .  S
O2           H66   0.990       .  S
O3           C23   1.282       .  A
O4           C25   1.293       .  A
O5          Zr15   2.448       .  S
O5           C24   1.288       .  A
O6          Zr14   2.392       .  S
O6           C25   1.277       .  A
O7           C24   1.289       .  A
O8          Zr16   2.428       .  S
O8           C23   1.285       .  A
O9          Zr14   2.388       .  S
O9          Zr16   2.375       .  S
O10         Zr15   2.389       .  S
O10         Zr16   2.375       .  S
O10          H45   0.966       .  S
O11         Zr14   2.392       .  S
O11         Zr31   2.393       .  S
O11          H48   0.966       .  S
O12         Zr15   2.386       .  S
O12         Zr31   2.376       .  S
Zr13         O38   2.440       .  S
Zr13         O32   2.466       .  S
Zr13         O40   2.452       .  S
Zr13         O28   2.477       .  S
Zr13         O19   2.413       .  S
Zr13         O20   2.414       .  S
Zr13         O21   2.381       .  S
Zr13         O22   2.399       .  S
Zr14         O33   2.437       .  S
Zr14         O26   2.435       .  S
Zr14         O27   2.397       .  S
Zr14         O20   2.394       .  S
Zr14         O21   2.387       .  S
Zr15         O17   2.434       .  S
Zr15         O39   2.439       .  S
Zr15         O41   2.435       .  S
Zr15         O19   2.394       .  S
Zr15         O22   2.400       .  S
Zr16         O42   2.437       .  S
Zr16         O43   2.435       .  S
Zr16         O18   2.438       .  S
Zr16         O19   2.391       .  S
Zr16         O20   2.400       .  S
O17          H54   0.990       .  S
O18          H49   0.990       .  S
O18          H63   0.990       .  S
O20          H46   0.965       .  S
O21         Zr31   2.379       .  S
O22         Zr31   2.380       .  S
O22          H47   0.966       .  S
C23         C585   1.484       .  S
C24         C564   1.487       .  S
C25         C597   1.482       .  S
O26          H62   0.990       .  S
O27          C29   1.278       .  A
O28          C29   1.291       .  A
C29        C1792   1.489       .  S
O30         Zr31   2.434       .  S
O30          H59   0.990       .  S
Zr31         O34   2.435       .  S
Zr31         O35   2.438       .  S
Zr31         O36   2.396       .  S
O32          C37   1.287       .  A
O33          H50   0.990       .  S
O33          H65   0.990       .  S
O34          H51   0.990       .  S
O35          H55   0.990       .  S
O35          H64   0.990       .  S
O36          C37   1.279       .  A
C37        C1765   1.505       .  S
O38          H57   0.990       .  S
O38          H61   0.990       .  S
O39          H53   0.990       .  S
O39          H60   0.990       .  S
O40          C44   1.288       .  A
O41          C44   1.286       .  A
O42          H52   0.989       .  S
O43          H56   0.990       .  S
C44         C537   1.490       .  S
C67         C513   1.569       .  S
C67         C528   1.575       .  S
C67         C573   1.595       .  S
C67         C588   1.594       .  S
C68         C552   1.587       .  S
C68         C561   1.595       .  S
C68        C1109   1.573       .  S
C68        C1133   1.567       .  S
Zr69         O70   2.439       .  S
Zr69         O71   2.430       .  S
Zr69         O72   2.470       .  S
Zr69         O75   2.440       .  S
Zr69         O77   2.381       .  S
Zr69         O78   2.391       .  S
Zr69         O79   2.402       .  S
Zr69         O80   2.407       .  S
O70         H126   0.990       .  S
O70         H134   0.990       .  S
O71          C91   1.283       .  A
O72          C93   1.290       .  A
O73         Zr83   2.437       .  S
O73          C92   1.284       .  A
O74         Zr82   2.390       .  S
O74          C93   1.277       .  A
O75          C92   1.288       .  A
O76        Zr692   2.432       .  S
O76         C699   1.283       .  A
O77         Zr82   2.391       .  S
O77         Zr84   2.371   1_554  S
O78         Zr83   2.387       .  S
O78         Zr84   2.378   1_554  S
O78         H113   0.966       .  S
O79         Zr82   2.394       .  S
O79         Zr99   2.398       .  S
O79         H116   0.966       .  S
O80         Zr83   2.391       .  S
O80         Zr99   2.389       .  S
Zr81        O714   2.442       .  S
Zr81        O100   2.446       .  S
Zr81        O108   2.430       .  S
Zr81         O96   2.432       .  S
Zr81         O87   2.400       .  S
Zr81         O88   2.410       .  S
Zr81         O89   2.375       .  S
Zr81         O90   2.390       .  S
Zr82        O101   2.437       .  S
Zr82        O702   2.434   1_554  S
Zr82         O95   2.407       .  S
Zr82         O88   2.388       .  S
Zr82         O89   2.377       .  S
Zr83         O85   2.436       .  S
Zr83        O107   2.433       .  S
Zr83        O109   2.426       .  S
Zr83         O87   2.386       .  S
Zr83         O90   2.398       .  S
Zr84        O718   2.433       .  S
Zr84        O719   2.436       .  S
Zr84        O694   2.436       .  S
Zr84        O684   2.425       .  S
Zr84         O87   2.385   1_556  S
Zr84         O88   2.399   1_556  S
O85         H122   0.990       .  S
O86        Zr692   2.438       .  S
O86         H117   0.990       .  S
O86         H131   0.990       .  S
O88         H722   0.965   1_554  S
O89         Zr99   2.376       .  S
O90         Zr99   2.390       .  S
O90         H115   0.966       .  S
C91         O684   1.283   1_554  A
C91        C1085   1.471   1_554  S
C92         C456   1.485       .  S
C93         C492   1.477   1_655  S
O94        Zr690   2.435       .  S
O94         H130   0.990       .  S
O95          C97   1.280       .  A
O96          C97   1.283       .  A
C97        C1073   1.474   1_554  S
O98         Zr99   2.435       .  S
O98         H127   0.990       .  S
Zr99        O102   2.436       .  S
Zr99        O103   2.438       .  S
Zr99        O104   2.412       .  S
O100        C105   1.285       .  A
O101        H118   0.990       .  S
O101        H133   0.990       .  S
O102        H119   0.990       .  S
O103        H123   0.990       .  S
O103        H132   0.990       .  S
O104        C105   1.280       .  A
C105        C441   1.478       .  S
O106       Zr689   2.442       .  S
O106        H125   0.990       .  S
O106        H129   0.991       .  S
O107        H121   0.990       .  S
O107        H128   0.989       .  S
O108        C112   1.281       .  A
O109        C112   1.282       .  A
O110       Zr692   2.435       .  S
O110        H120   0.990       .  S
O111       Zr692   2.435       .  S
O111        H124   0.990       .  S
C112        C504   1.476       .  S
H114        O696   0.966       .  S
C135        C417   1.580       .  S
C135        C429   1.584       .  S
C135        C468   1.574       .  S
C135        C480   1.575       .  S
C136        C432   1.575       .  S
C136        C444   1.574       .  S
C136        C453   1.583       .  S
C136        C540   1.588       .  S
Zr137       O138   2.439       .  S
Zr137       O139   2.454       .  S
Zr137       O140   2.487       .  S
Zr137       O143   2.472       .  S
Zr137       O145   2.391       .  S
Zr137       O146   2.398       .  S
Zr137       O147   2.411       .  S
Zr137       O148   2.407       .  S
O138        H194   0.990       .  S
O138        H202   0.991       .  S
O139        C159   1.288       .  A
O140        C161   1.292       .  A
O141       Zr151   2.408       .  S
O141        C160   1.282       .  A
O142       Zr150   2.384       .  S
O142        C161   1.274       .  A
O143        C160   1.292       .  A
O144       Zr152   2.442       .  S
O144        C159   1.287       .  A
O145       Zr150   2.394       .  S
O145       Zr152   2.365       .  S
O146       Zr151   2.397       .  S
O146       Zr152   2.374       .  S
O146        H181   0.966       .  S
O147       Zr150   2.397       .  S
O147       Zr167   2.391       .  S
O147        H184   0.966       .  S
O148       Zr151   2.390       .  S
O148       Zr167   2.380       .  S
Zr149       O174   2.440       .  S
Zr149       O168   2.454       .  S
Zr149       O176   2.463       .  S
Zr149       O164   2.467       .  S
Zr149       O155   2.405       .  S
Zr149       O156   2.419       .  S
Zr149       O157   2.371       .  S
Zr149       O158   2.393       .  S
Zr150       O169   2.435       .  S
Zr150       O162   2.434       .  S
Zr150       O163   2.415       .  S
Zr150       O156   2.384       .  S
Zr150       O157   2.366       .  S
Zr151       O153   2.435       .  S
Zr151       O175   2.440       .  S
Zr151       O177   2.425       .  S
Zr151       O155   2.375       .  S
Zr151       O158   2.395       .  S
Zr152       O178   2.436       .  S
Zr152       O179   2.436       .  S
Zr152       O154   2.437       .  S
Zr152       O155   2.393       .  S
Zr152       O156   2.405       .  S
O153        H190   0.990       .  S
O154        H185   0.990       .  S
O154        H199   0.990       .  S
O156        H182   0.965       .  S
O157       Zr167   2.384       .  S
O158       Zr167   2.394       .  S
O158        H183   0.966       .  S
C159       C1609   1.509       .  S
C160       C1600   1.505   1_545  S
C161        C516   1.492       .  S
O162        H198   0.990       .  S
O163        C165   1.281       .  A
O164        C165   1.288       .  A
C165        C408   1.482       .  S
O166       Zr167   2.435   1_556  S
O166        H803   0.990       .  S
Zr167       O170   2.438       .  S
Zr167       O171   2.436   1_554  S
Zr167       O172   2.389       .  S
O168        C173   1.285       .  A
O169        H186   0.990       .  S
O169        H201   0.989       .  S
O170        H187   0.990   1_554  S
O171        H200   0.990       .  S
O171        H799   0.990       .  S
O172        C173   1.275       .  A
C173        C372   1.478       .  S
O174        H193   0.990       .  S
O174        H197   0.991       .  S
O175        H189   0.990       .  S
O175        H196   0.990       .  S
O176        C180   1.289       .  A
O177        C180   1.284       .  A
O178        H188   0.990       .  S
O179        H192   0.990       .  S
C180        C357   1.502       .  S
H191        O779   0.990       .  S
H195        O774   0.990       .  S
C203        C345   1.583       .  S
C203        C396   1.587       .  S
C203        C405   1.575       .  S
C203        C600   1.575       .  S
C204        C333   1.585       .  S
C204        C348   1.585       .  S
C204        C381   1.580       .  S
C204        C977   1.578       .  S
Zr205       O206   2.441       .  S
Zr205       O208   2.503       .  S
Zr205      O1423   2.439       .  S
Zr205      O1427   2.455       .  S
Zr205       O213   2.381       .  S
Zr205       O214   2.394       .  S
Zr205       O215   2.399       .  S
Zr205       O216   2.415       .  S
O206        H270   0.990       .  S
O206       H1478   0.991       .  S
O207      Zr1421   2.440   1_545  S
O207        C227   1.284       .  A
O208        C229   1.295       .  A
O209      Zr1435   2.404   1_545  S
O209        C228   1.279       .  A
O210       Zr218   2.377       .  S
O210        C229   1.275       .  A
O211      Zr1421   2.457   1_545  S
O211        C228   1.290       .  A
O212      Zr1436   2.407   1_545  S
O212        C227   1.278       .  A
O213       Zr218   2.392       .  S
O213       Zr220   2.384       .  S
O214       Zr219   2.396       .  S
O214       Zr220   2.370       .  S
O214       H1465   0.966       .  S
O215       Zr218   2.395       .  S
O215       Zr235   2.382       .  S
O215        H252   0.965       .  S
O216       Zr219   2.396       .  S
O216       Zr235   2.384       .  S
Zr217       O242   2.443       .  S
Zr217       O236   2.440       .  S
Zr217       O244   2.452       .  S
Zr217       O232   2.438       .  S
Zr217       O223   2.397       .  S
Zr217       O224   2.407       .  S
Zr217       O225   2.379       .  S
Zr217       O226   2.390       .  S
Zr218       O237   2.438       .  S
Zr218       O230   2.435       .  S
Zr218       O231   2.393       .  S
Zr218       O224   2.393       .  S
Zr218       O225   2.378       .  S
Zr219       O221   2.436       .  S
Zr219       O243   2.438       .  S
Zr219       O245   2.434       .  S
Zr219      O1425   2.403       .  S
Zr219       O223   2.388       .  S
Zr219       O226   2.388       .  S
Zr220       O246   2.436       .  S
Zr220       O247   2.435       .  S
Zr220       O222   2.437       .  S
Zr220      O1428   2.400       .  S
Zr220       O223   2.386       .  S
Zr220       O224   2.384       .  S
O221        H258   0.990       .  S
O222        H267   0.990       .  S
O222        H861   0.990       .  S
O224        H250   0.964       .  S
O225       Zr235   2.379       .  S
O226       Zr235   2.381       .  S
O226        H251   0.966       .  S
C227        C321   1.467       .  S
C228        C297   1.499       .  S
C229        C420   1.485       .  S
O230        H266   0.990       .  S
O231        C233   1.277       .  A
O232        C233   1.284       .  A
C233        C309   1.455       .  S
O234       Zr235   2.437       .  S
O234        H263   0.990       .  S
Zr235       O238   2.436       .  S
Zr235       O239   2.438       .  S
Zr235       O240   2.396       .  S
O236        C241   1.285       .  A
O237        H254   0.990       .  S
O237        H269   0.990       .  S
O238        H255   0.990       .  S
O239        H259   0.990       .  S
O239        H268   0.990       .  S
O240        C241   1.276       .  A
C241        C285   1.492       .  S
O242        H261   0.990       .  S
O242        H265   0.991       .  S
O243        H257   0.990       .  S
O243       H1480   0.990       .  S
O244        C248   1.285       .  A
O245        C248   1.283       .  A
O246       H1472   0.990       .  S
O247        H260   0.990       .  S
C248        C336   1.478       .  S
H249       O1430   0.967   1_545  S
H253        O830   0.990       .  S
H256       O1462   0.990       .  S
H262       O1422   0.990       .  S
H264       O1459   0.990       .  S
C271        C273   1.575       .  S
C271        C489   1.578       .  S
C271        C920   1.553       .  S
C271        C932   1.569       .  S
C272        C276   1.580       .  S
C272        C288   1.573       .  S
C272        C300   1.566       .  S
C272        C360   1.585       .  S
C273        C274   1.413       .  A
C273        C278   1.435       .  A
C274        C275   1.405       .  A
C274        H279   1.084       .  S
C275        C276   1.429       .  A
C275        C282   1.442       .  S
C276        C277   1.411       .  A
C277        C278   1.397       .  A
C277        H280   1.085       .  S
C278        C281   1.445       .  S
C281        N283   1.158       .  T
C282        N284   1.158       .  T
C285        C286   1.404       .  A
C285        C290   1.416       .  A
C286        C287   1.403       .  A
C286        H291   1.085       .  S
C287        C288   1.431       .  A
C287        C294   1.445       .  S
C288        C289   1.411       .  A
C289        C290   1.391       .  A
C289        H292   1.073       .  S
C290        C293   1.447       .  S
C293        N295   1.157       .  T
C294        N296   1.157       .  T
C297        C298   1.404       .  A
C297        C302   1.419       .  A
C298        C299   1.406       .  A
C298        H303   1.084       .  S
C299        C300   1.431       .  A
C299        C306   1.445       .  S
C300        C301   1.411       .  A
C301        C302   1.395       .  A
C301        H304   1.078       .  S
C302        C305   1.446       .  S
C305        N307   1.157       .  T
C306        N308   1.157       .  T
C309        C310   1.392       .  A
C309        C314   1.402       .  A
C310        C311   1.396       .  A
C310        H315   1.086       .  S
C311        C312   1.434       .  A
C311        C318   1.444       .  S
C312        C879   1.556       .  S
C312        C313   1.417       .  A
C313        C314   1.391       .  A
C313        H924   1.084       .  S
C314        C317   1.445       .  S
H316        C921   1.083       .  S
C317        N319   1.157       .  T
C318        N320   1.158       .  T
C321        C322   1.394       .  A
C321        C326   1.401       .  A
C322        C323   1.397       .  A
C322        H327   1.086       .  S
C323        C324   1.430       .  A
C323        C330   1.442       .  S
C324        C879   1.569       .  S
C324        C325   1.423       .  A
C325        C326   1.399       .  A
C325        H936   1.080       .  S
C326        C329   1.444       .  S
H328        C933   1.081       .  S
C329        N331   1.157       .  T
C330        N332   1.157       .  T
C333        C334   1.425       .  A
C333        C338   1.434       .  A
C334        C335   1.404       .  A
C334        H339   1.080       .  S
C335        C336   1.401       .  A
C335        C342   1.444       .  S
C336        C337   1.395       .  A
C337        C338   1.404       .  A
C337        H340   1.086       .  S
C338        C341   1.441       .  S
C341        N951   1.157       .  T
C342        N344   1.157       .  T
N343        C949   1.157   1_554  T
C345        C346   1.411       .  A
C345        C350   1.432       .  A
C346        C347   1.400       .  A
C346        H351   1.083       .  S
C347        C348   1.425       .  A
C347        C354   1.443       .  S
C348        C349   1.417       .  A
C349        C350   1.411       .  A
C349        H352   1.083       .  S
C350        C353   1.444       .  S
C353        N355   1.158       .  T
C354        N356   1.157       .  T
C357        C358   1.409       .  A
C357        C362   1.412       .  A
C358        C359   1.405       .  A
C358        H363   1.084       .  S
C359        C360   1.426       .  A
C359        C366   1.444       .  S
C360        C361   1.421       .  A
C361        C362   1.398       .  A
C361        H364   1.078       .  S
C362        C365   1.444       .  S
C365        N367   1.157       .  T
C366        N368   1.157       .  T
C369        C812   1.571       .  S
C369        C370   1.418       .  A
C369        C982   1.437   1_556  A
C370        C371   1.391       .  A
C370        H375   1.084       .  S
C371        C372   1.405   1_556  A
C371        C378   1.445       .  S
C372        C373   1.399       .  A
C373        C982   1.405       .  A
C373        H376   1.086       .  S
C374        C977   1.438       .  A
C374        C981   1.405       .  A
C374        C377   1.441       .  S
C377        N379   1.158       .  T
C378        N380   1.157       .  T
C381        C990   1.425       .  A
C381        C994   1.428       .  A
C382        C383   1.407   1_556  A
C382        C989   1.422       .  A
C382        H995   1.082       .  S
C383        C384   1.410       .  A
C383        C390   1.443       .  S
C384       C1376   1.502       .  S
C384        C385   1.407   1_554  A
C385        C386   1.399       .  A
C385        H388   1.085       .  S
C386        C989   1.429       .  A
C386        C389   1.443       .  S
H387        C990   1.082       .  S
C389        N391   1.158       .  T
C390        N392   1.157       .  T
C393       C1375   1.510       .  S
C393        C394   1.409       .  A
C393        C398   1.415       .  A
C394        C395   1.417       .  A
C394        H399   1.084       .  S
C395        C396   1.432       .  A
C395        C402   1.443       .  S
C396        C397   1.415       .  A
C397        C398   1.398       .  A
C397        H400   1.078       .  S
C398       C1617   1.446       .  S
C401       C1614   1.445   1_545  S
C401        N403   1.157       .  T
C402        N404   1.158       .  T
C405        C406   1.416       .  A
C405        C410   1.433       .  A
C406        C407   1.392       .  A
C406        H411   1.076       .  S
C407        C408   1.403       .  A
C407        C414   1.445       .  S
C408        C409   1.402       .  A
C409        C410   1.413       .  A
C409        H412   1.085       .  S
C410        C413   1.442       .  S
C413        N415   1.158       .  T
C414        N416   1.157       .  T
C417        C418   1.430       .  A
C417        C422   1.424       .  A
C418        C419   1.406       .  A
C418        H423   1.079       .  S
C419        C420   1.399   1_655  A
C419       C1642   1.443       .  S
C420        C421   1.405   1_455  A
C421        C422   1.402       .  A
C421        H424   1.086   1_655  S
C422        C425   1.443       .  S
C425        N427   1.157       .  T
C426       C1635   1.443   1_545  S
C426        N428   1.157   1_655  T
C429        C430   1.414       .  A
C429        C434   1.430       .  A
C430        C431   1.406       .  A
C430        H435   1.085       .  S
C431        C432   1.430       .  A
C431        C438   1.441       .  S
C432        C433   1.414       .  A
C433        C434   1.404       .  A
C433        H436   1.085       .  S
C434        C437   1.444       .  S
C437        N439   1.158       .  T
C438       N1656   1.158       .  T
N440       C1654   1.158   1_545  T
C441        C442   1.395   1_545  A
C441        C446   1.402       .  A
C442       C1659   1.398       .  A
C442        H447   1.086   1_565  S
C443        C444   1.431       .  A
C443       C1658   1.398       .  A
C443        C450   1.440       .  S
C444       C1661   1.425       .  A
C445        C446   1.406   1_565  A
C445       C1660   1.426       .  A
C445        H448   1.080       .  S
C446        C449   1.444       .  S
C449        N451   1.157       .  T
C450        N452   1.157       .  T
C453        C454   1.419       .  A
C453        C458   1.436       .  A
C454        C455   1.402       .  A
C454        H459   1.084       .  S
C455        C456   1.408       .  A
C455        C462   1.442       .  S
C456        C457   1.396       .  A
C457        C458   1.402       .  A
C457        H460   1.086       .  S
C458        C461   1.438       .  S
C461        N463   1.156       .  T
C462        N464   1.157       .  T
C465        C705   1.475       .  S
C465        C466   1.396   1_545  A
C465        C470   1.407   1_545  A
C466        C467   1.396       .  A
C466       H1079   1.086       .  S
C467       C1684   1.430       .  A
C467        C474   1.442       .  S
C468       C1683   1.430       .  A
C468       C1685   1.420       .  A
C469        C470   1.399       .  A
C469       C1684   1.420       .  A
C469       H1688   1.081       .  S
C470        C473   1.444   1_565  S
H471       C1074   1.086       .  S
H472       C1685   1.080       .  S
C473        N475   1.157       .  T
C474       N1692   1.157       .  T
N476       C1690   1.157       .  T
C477        C699   1.476       .  S
C477        C478   1.394       .  A
C477        C482   1.403       .  A
C478        C479   1.405       .  A
C478        H483   1.086       .  S
C479        C480   1.437       .  A
C479        C486   1.441       .  S
C480        C481   1.423       .  A
C481        C482   1.400       .  A
C481        H484   1.084       .  S
C482       C1093   1.446       .  S
C485       C1090   1.445       .  S
C485        N487   1.157   1_556  T
C486        N488   1.158       .  T
C489        C490   1.420       .  A
C489        C494   1.432       .  A
C490        C491   1.392       .  A
C490       H1103   1.082   1_554  S
C491        C492   1.404       .  A
C491        C498   1.446   1_454  S
C492        C493   1.399       .  A
C493        C494   1.410       .  A
C493        H496   1.085       .  S
C494        C497   1.437       .  S
H495       C1098   1.082       .  S
C497        N499   1.156       .  T
C498       N1108   1.157       .  T
N500       C1106   1.157       .  T
C501        C676   1.567       .  S
C501        C502   1.419       .  A
C501        C506   1.435       .  A
C502        C503   1.400       .  A
C502       H1115   1.078   1_554  S
C503        C504   1.407       .  A
C503        C510   1.444       .  S
C504        C505   1.394       .  A
C505        C506   1.397       .  A
C505        H508   1.086       .  S
C506        C509   1.442       .  S
H507       C1110   1.077       .  S
C509        N511   1.157       .  T
C510       N1120   1.157   1_554  T
N512       C1118   1.157       .  T
C513        C514   1.407       .  A
C513        C518   1.435       .  A
C514        C515   1.382       .  A
C514        H519   1.072       .  S
C515        C516   1.416       .  A
C515        C522   1.446       .  S
C516        C517   1.404       .  A
C517        C518   1.415       .  A
C517        H520   1.084       .  S
C518        C521   1.443       .  S
C521        N523   1.157       .  T
C522        N524   1.157       .  T
C525        C676   1.571       .  S
C525        C526   1.412       .  A
C525        C530   1.430       .  A
C526        C527   1.408       .  A
C526        H531   1.085       .  S
C527        C528   1.435       .  A
C527        C534   1.443       .  S
C528        C529   1.411       .  A
C529        C530   1.396       .  A
C529        H532   1.086       .  S
C530        C533   1.444       .  S
C533        N535   1.158       .  T
C534        N536   1.158       .  T
C537        C538   1.399       .  A
C537        C542   1.408       .  A
C538        C539   1.408       .  A
C538        H543   1.085       .  S
C539        C540   1.434       .  A
C539        C546   1.443       .  S
C540        C541   1.420       .  A
C541        C542   1.402       .  A
C541        H544   1.079       .  S
C542        C545   1.445       .  S
C545        N547   1.157       .  T
C546       N1764   1.157       .  T
N548       C1762   1.157   1_545  T
C549       C1253   1.498       .  S
C549        C550   1.398       .  A
C549        C554   1.411       .  A
C550        C551   1.390       .  A
C550       H1771   1.086       .  S
C551        C552   1.438       .  A
C551        C558   1.442       .  S
C552        C553   1.423       .  A
C553        C554   1.410       .  A
C553        H556   1.084       .  S
C554        C557   1.442       .  S
H555       C1766   1.085       .  S
C557        N559   1.157       .  T
C558       N1168   1.156       .  T
N560       C1166   1.157       .  T
C561        C562   1.423       .  A
C561        C566   1.439       .  A
C562        C563   1.407       .  A
C562        H567   1.075       .  S
C563        C564   1.403       .  A
C563        C570   1.443       .  S
C564        C565   1.395       .  A
C565        C566   1.406       .  A
C565        H568   1.086       .  S
C566        C569   1.443       .  S
C569       N1179   1.157       .  T
C570        N572   1.157       .  T
N571       C1177   1.157       .  T
C573        C574   1.425       .  A
C573        C578   1.436       .  A
C574        C575   1.405       .  A
C574        H579   1.074       .  S
C575        C576   1.404       .  A
C575       C1798   1.444       .  S
C576       C1245   1.493       .  S
C576        C577   1.403       .  A
C577        C578   1.405       .  A
C577        H580   1.085       .  S
C578        C581   1.448       .  S
C581        N583   1.158       .  T
C582       C1791   1.445       .  S
C582        N584   1.157       .  T
C585        C586   1.394       .  A
C585        C590   1.407       .  A
C586        C587   1.397       .  A
C586        H591   1.086       .  S
C587        C588   1.443       .  A
C587        C594   1.445       .  S
C588        C589   1.419       .  A
C589        C590   1.400       .  A
C589        H592   1.071       .  S
C590        C593   1.445       .  S
C593        N595   1.158       .  T
C594        N596   1.158       .  T
C597        C598   1.400       .  A
C597        C602   1.404       .  A
C598        C599   1.401       .  A
C598        H603   1.086       .  S
C599        C600   1.428       .  A
C599        C606   1.443       .  S
C600        C601   1.425       .  A
C601        C602   1.407       .  A
C601        H604   1.079       .  S
C602        C605   1.444       .  S
C605        N607   1.157       .  T
C606        N608   1.158       .  T
Zr609       O610   2.439       .  S
Zr609       O611   2.439       .  S
Zr609       O612   2.483       .  S
Zr609       O615   2.449       .  S
Zr609       O617   2.381       .  S
Zr609       O618   2.392       .  S
Zr609       O619   2.408       .  S
Zr609       O620   2.410       .  S
O610        H666   0.990       .  S
O610        H674   0.990       .  S
O611        C631   1.285       .  A
O612        C633   1.293       .  A
O613       Zr623   2.446       .  S
O613        C632   1.287       .  A
O614       Zr622   2.395       .  S
O614        C633   1.278       .  A
O615        C632   1.288       .  A
O616       Zr624   2.415       .  S
O616        C631   1.282       .  A
O617       Zr622   2.388       .  S
O617       Zr624   2.377       .  S
O618       Zr623   2.395       .  S
O618       Zr624   2.372       .  S
O618        H653   0.966       .  S
O619       Zr622   2.394       .  S
O619       Zr639   2.399       .  S
O619        H656   0.966       .  S
O620       Zr623   2.386       .  S
O620       Zr639   2.384       .  S
Zr621       O646   2.437       .  S
Zr621       O640   2.457       .  S
Zr621       O648   2.452       .  S
Zr621       O636   2.468       .  S
Zr621       O627   2.409       .  S
Zr621       O628   2.410       .  S
Zr621       O629   2.381       .  S
Zr621       O630   2.397       .  S
Zr622       O641   2.438       .  S
Zr622       O634   2.435       .  S
Zr622       O635   2.401       .  S
Zr622       O628   2.394       .  S
Zr622       O629   2.384       .  S
Zr623       O625   2.434       .  S
Zr623       O647   2.439       .  S
Zr623       O649   2.448       .  S
Zr623       O627   2.390       .  S
Zr623       O630   2.398       .  S
Zr624       O650   2.436       .  S
Zr624       O651   2.434       .  S
Zr624       O626   2.437       .  S
Zr624       O627   2.386       .  S
Zr624       O628   2.394       .  S
O625        H662   0.990       .  S
O626        H657   0.991       .  S
O626        H671   0.990       .  S
O628        H654   0.965       .  S
O629       Zr639   2.376       .  S
O630       Zr639   2.382       .  S
O630        H655   0.966       .  S
C631       C1193   1.487       .  S
C632       C1172   1.485       .  S
C633       C1205   1.484       .  S
O634        H670   0.990       .  S
O635        C637   1.279       .  A
O636        C637   1.290       .  A
C637       C2400   1.487       .  S
O638       Zr639   2.438       .  S
O638        H667   0.990       .  S
Zr639       O642   2.435       .  S
Zr639       O643   2.441       .  S
Zr639       O644   2.414       .  S
O640        C645   1.286       .  A
O641        H658   0.990       .  S
O641        H673   0.990       .  S
O642        H659   0.991       .  S
O643        H663   0.991       .  S
O643        H672   0.989       .  S
O644        C645   1.283       .  A
C645       C2373   1.507       .  S
O646        H665   0.990       .  S
O646        H669   0.990       .  S
O647        H661   0.990       .  S
O647        H668   0.990       .  S
O648        C652   1.289       .  A
O649        C652   1.289       .  A
O650        H660   0.990       .  S
O651        H664   0.990       .  S
C652       C1145   1.500       .  S
C675       C1121   1.570       .  S
C675       C1136   1.571       .  S
C675       C1181   1.590       .  S
C675       C1196   1.596       .  S
C676       C1160   1.588   1_554  S
C676       C1169   1.594   1_554  S
Zr677       O678   2.438       .  S
Zr677       O679   2.436       .  S
Zr677       O680   2.474       .  S
Zr677       O683   2.437       .  S
Zr677       O685   2.381       .  S
Zr677       O686   2.391       .  S
Zr677       O687   2.401       .  S
Zr677       O688   2.408       .  S
O678        H734   0.990       .  S
O678        H742   0.990       .  S
O679        C699   1.284       .  A
O680        C701   1.292       .  A
O681       Zr691   2.444       .  S
O681        C700   1.285       .  A
O682       Zr690   2.400       .  S
O682        C701   1.279       .  A
O683        C700   1.288       .  A
O685       Zr690   2.392       .  S
O685       Zr692   2.373       .  S
O686       Zr691   2.389       .  S
O686       Zr692   2.374       .  S
O686        H721   0.966       .  S
O687       Zr690   2.390       .  S
O687       Zr707   2.395       .  S
O687        H724   0.966       .  S
O688       Zr691   2.396       .  S
O688       Zr707   2.396       .  S
Zr689       O708   2.453       .  S
Zr689       O716   2.425       .  S
Zr689       O704   2.428       .  S
Zr689       O695   2.402       .  S
Zr689       O696   2.412       .  S
Zr689       O697   2.374       .  S
Zr689       O698   2.387       .  S
Zr690       O709   2.436       .  S
Zr690       O703   2.418       .  S
Zr690       O696   2.386       .  S
Zr690       O697   2.381       .  S
Zr691       O693   2.435       .  S
Zr691       O715   2.435       .  S
Zr691       O717   2.442       .  S
Zr691       O695   2.386       .  S
Zr691       O698   2.400       .  S
Zr692       O695   2.386       .  S
Zr692       O696   2.402       .  S
O693        H730   0.990       .  S
O694        H725   0.990       .  S
O694        H739   0.990       .  S
O697       Zr707   2.373       .  S
O698       Zr707   2.389       .  S
O698        H723   0.966       .  S
C700       C1064   1.489       .  S
C701       C1100   1.482   1_655  S
O702        H738   0.989       .  S
O703        C705   1.283       .  A
O704        C705   1.282       .  A
O706       Zr707   2.437       .  S
O706        H735   0.990       .  S
Zr707       O710   2.437       .  S
Zr707       O711   2.437       .  S
Zr707       O712   2.418       .  S
O708        C713   1.286       .  A
O709        H726   0.990       .  S
O709        H741   0.990       .  S
O710        H727   0.990       .  S
O711        H731   0.990       .  S
O711        H740   0.990       .  S
O712        C713   1.281       .  A
C713       C1049   1.482       .  S
O714        H733   0.990       .  S
O714        H737   0.991   1_554  S
O715        H729   0.990       .  S
O715        H736   0.990       .  S
O716        C720   1.281       .  A
O717        C720   1.285       .  A
O718        H728   0.990       .  S
O719        H732   0.990       .  S
C720       C1112   1.483       .  S
C743       C1025   1.579       .  S
C743       C1037   1.585       .  S
C743       C1076   1.577       .  S
C743       C1088   1.571       .  S
C744       C1040   1.575       .  S
C744       C1052   1.573       .  S
C744       C1061   1.583       .  S
C744       C1148   1.592       .  S
Zr745       O746   2.439       .  S
Zr745       O747   2.448       .  S
Zr745       O748   2.491       .  S
Zr745       O751   2.480       .  S
Zr745       O753   2.394       .  S
Zr745       O754   2.395       .  S
Zr745       O755   2.411       .  S
Zr745       O756   2.407       .  S
O746        H802   0.990       .  S
O746        H810   0.991       .  S
O747        C767   1.287       .  A
O748        C769   1.292       .  A
O749       Zr759   2.411       .  S
O749        C768   1.283       .  A
O750       Zr758   2.388       .  S
O750        C769   1.274       .  A
O751        C768   1.293       .  A
O752       Zr760   2.433       .  S
O752        C767   1.284       .  A
O753       Zr758   2.400       .  S
O753       Zr760   2.369       .  S
O754       Zr759   2.395       .  S
O754       Zr760   2.369       .  S
O754        H789   0.966       .  S
O755       Zr758   2.400       .  S
O755       Zr775   2.388       .  S
O755        H792   0.965       .  S
O756       Zr759   2.391       .  S
O756       Zr775   2.377       .  S
Zr757       O782   2.439       .  S
Zr757       O776   2.471       .  S
Zr757       O784   2.462       .  S
Zr757       O772   2.482       .  S
Zr757       O763   2.414       .  S
Zr757       O764   2.418       .  S
Zr757       O765   2.369       .  S
Zr757       O766   2.397       .  S
Zr758       O777   2.436       .  S
Zr758       O770   2.434       .  S
Zr758       O771   2.427       .  S
Zr758       O764   2.383       .  S
Zr758       O765   2.369       .  S
Zr759       O761   2.437       .  S
Zr759       O783   2.442       .  S
Zr759       O785   2.434       .  S
Zr759       O763   2.382       .  S
Zr759       O766   2.396       .  S
Zr760       O786   2.435       .  S
Zr760       O787   2.435       .  S
Zr760       O762   2.437       .  S
Zr760       O763   2.391       .  S
Zr760       O764   2.404       .  S
O761        H798   0.990       .  S
O762        H793   0.990       .  S
O762        H807   0.990       .  S
O764        H790   0.965       .  S
O765       Zr775   2.391       .  S
O766       Zr775   2.388       .  S
O766        H791   0.966       .  S
C767       C2217   1.505   1_545  S
C768       C2208   1.508   1_545  S
C769       C1124   1.491       .  S
O770        H806   0.990       .  S
O771        C773   1.283       .  A
O772        C773   1.291       .  A
C773       C1016   1.494       .  S
O774       Zr775   2.437       .  S
Zr775       O778   2.437       .  S
Zr775       O779   2.436       .  S
Zr775       O780   2.389       .  S
O776        C781   1.290       .  A
O777        H794   0.989       .  S
O777        H809   0.989       .  S
O778        H795   0.990       .  S
O779        H808   0.990       .  S
O780        C781   1.275       .  A
C781        C980   1.485       .  S
O782        H801   0.990       .  S
O782        H805   0.991       .  S
O783        H797   0.990       .  S
O783        H804   0.990       .  S
O784        C788   1.290       .  A
O785        C788   1.285       .  A
O786        H796   0.990       .  S
O787        H800   0.990       .  S
C788        C965   1.504       .  S
C811        C953   1.577       .  S
C811       C1004   1.588       .  S
C811       C1013   1.582       .  S
C811       C1208   1.577       .  S
C812        C941   1.580       .  S
C812        C956   1.581       .  S
C812        C989   1.570       .  S
Zr813       O814   2.440       .  S
Zr813      O2031   2.450       .  S
Zr813       O816   2.507       .  S
Zr813      O2035   2.464       .  S
Zr813       O821   2.385       .  S
Zr813       O822   2.401       .  S
Zr813       O823   2.406       .  S
Zr813       O824   2.416       .  S
O814       H2086   0.990       .  S
O814        H878   0.990       .  S
O815      Zr2029   2.449   1_545  S
O815        C835   1.287       .  A
O816        C837   1.296       .  A
O817      Zr2043   2.400   1_545  S
O817        C836   1.278       .  A
O818       Zr826   2.386       .  S
O818        C837   1.276       .  A
O819      Zr2029   2.466   1_545  S
O819        C836   1.292       .  A
O820      Zr2044   2.402       .  S
O820        C835   1.277   1_565  A
O821       Zr826   2.387       .  S
O821       Zr828   2.383       .  S
O822       Zr827   2.396       .  S
O822       Zr828   2.380       .  S
O822       H2073   0.967       .  S
O823       Zr826   2.397       .  S
O823       Zr843   2.386       .  S
O823        H860   0.965       .  S
O824       Zr827   2.386       .  S
O824       Zr843   2.383       .  S
Zr825       O850   2.443       .  S
Zr825       O844   2.440       .  S
Zr825       O852   2.455       .  S
Zr825       O840   2.432       .  S
Zr825       O831   2.397       .  S
Zr825       O832   2.407       .  S
Zr825       O833   2.379       .  S
Zr825       O834   2.389       .  S
Zr826       O845   2.439       .  S
Zr826       O838   2.434       .  S
Zr826       O839   2.388       .  S
Zr826       O832   2.391       .  S
Zr826       O833   2.380       .  S
Zr827       O829   2.437       .  S
Zr827       O851   2.439       .  S
Zr827      O2033   2.403       .  S
Zr827       O853   2.423       .  S
Zr827       O831   2.383       .  S
Zr827       O834   2.387       .  S
Zr828       O854   2.435       .  S
Zr828       O855   2.437   1_556  S
Zr828       O830   2.437   1_556  S
Zr828      O2036   2.402       .  S
Zr828       O831   2.384       .  S
Zr828       O832   2.387       .  S
O829        H866   0.990       .  S
O830        H875   0.990       .  S
O832        H858   0.966       .  S
O833       Zr843   2.370       .  S
O834       Zr843   2.382       .  S
O834        H859   0.966       .  S
C835        C929   1.466       .  S
C836        C905   1.499       .  S
C837       C1028   1.490       .  S
O838        H874   0.990       .  S
O839        C841   1.276       .  A
O840        C841   1.283       .  A
C841        C917   1.453       .  S
O842       Zr843   2.435       .  S
O842        H871   0.990       .  S
Zr843       O846   2.434       .  S
Zr843       O847   2.439       .  S
Zr843       O848   2.403       .  S
O844        C849   1.285       .  A
O845        H862   0.990       .  S
O845        H877   0.990       .  S
O846        H863   0.990       .  S
O847        H867   0.990       .  S
O847        H876   0.989       .  S
O848        C849   1.278       .  A
C849        C893   1.494       .  S
O850        H869   0.990       .  S
O850        H873   0.991       .  S
O851        H865   0.990       .  S
O851       H2088   0.990       .  S
O852        C856   1.286       .  A
O853        C856   1.281       .  A
O854       H2080   0.990       .  S
O855        H868   0.991   1_554  S
C856        C944   1.475       .  S
H857       O2038   0.967       .  S
H864       O2070   0.990   1_554  S
H870       O2030   0.990       .  S
H872       O2067   0.990       .  S
C879        C881   1.576       .  S
C879       C1097   1.579       .  S
C880        C884   1.578       .  S
C880        C896   1.575       .  S
C880        C908   1.566       .  S
C880        C968   1.587       .  S
C881        C882   1.416       .  A
C881        C886   1.434       .  A
C882        C883   1.405       .  A
C882        H887   1.084       .  S
C883        C884   1.427       .  A
C883        C890   1.442       .  S
C884        C885   1.411       .  A
C885        C886   1.395       .  A
C885        H888   1.085       .  S
C886        C889   1.444       .  S
C889        N891   1.158       .  T
C890        N892   1.158       .  T
C893        C894   1.406       .  A
C893        C898   1.416       .  A
C894        C895   1.408       .  A
C894        H899   1.084       .  S
C895        C896   1.430       .  A
C895        C902   1.444       .  S
C896        C897   1.409       .  A
C897        C898   1.388       .  A
C897        H900   1.073       .  S
C898        C901   1.446       .  S
C901        N903   1.157       .  T
C902        N904   1.157       .  T
C905        C906   1.402       .  A
C905        C910   1.420       .  A
C906        C907   1.405       .  A
C906        H911   1.085       .  S
C907        C908   1.432       .  A
C907        C914   1.444       .  S
C908        C909   1.411       .  A
C909        C910   1.396       .  A
C909        H912   1.078       .  S
C910        C913   1.446       .  S
C913        N915   1.157       .  T
C914        N916   1.157       .  T
C917        C918   1.394       .  A
C917        C922   1.401   1_556  A
C918        C919   1.399       .  A
C918        H923   1.086       .  S
C919        C920   1.433   1_556  A
C919        C926   1.444       .  S
C920        C921   1.417       .  A
C921        C922   1.386       .  A
C922        C925   1.445       .  S
C925        N927   1.157       .  T
C926        N928   1.158       .  T
C929        C930   1.395       .  A
C929        C934   1.399       .  A
C930        C931   1.398       .  A
C930        H935   1.086       .  S
C931        C932   1.430   1_556  A
C931        C938   1.442       .  S
C932        C933   1.423       .  A
C933        C934   1.398   1_554  A
C934        C937   1.444       .  S
C937        N939   1.157       .  T
C938        N940   1.157       .  T
C941        C942   1.423       .  A
C941        C946   1.433       .  A
C942        C943   1.400       .  A
C942        H947   1.079       .  S
C943        C944   1.400       .  A
C943        C950   1.444       .  S
C944        C945   1.397       .  A
C945        C946   1.404       .  A
C945        H948   1.086       .  S
C946        C949   1.443       .  S
C950        N952   1.157       .  T
C953        C954   1.411       .  A
C953        C958   1.431       .  A
C954        C955   1.398       .  A
C954        H959   1.082       .  S
C955        C956   1.421       .  A
C955        C962   1.443       .  S
C956        C957   1.417       .  A
C957        C958   1.406       .  A
C957        H960   1.083       .  S
C958        C961   1.445       .  S
C961        N963   1.158       .  T
C962        N964   1.157       .  T
C965        C966   1.408       .  A
C965        C970   1.413       .  A
C966        C967   1.407       .  A
C966        H971   1.085       .  S
C967        C968   1.429       .  A
C967        C974   1.444       .  S
C968        C969   1.419       .  A
C969        C970   1.399       .  A
C969        H972   1.077       .  S
C970        C973   1.443       .  S
C973        N975   1.157       .  T
C974        N976   1.157       .  T
C977        C978   1.420       .  A
C978        C979   1.399       .  A
C978        H983   1.084       .  S
C979        C980   1.408       .  A
C979        C986   1.445       .  S
C980        C981   1.396       .  A
C981        H984   1.086       .  S
C982        C985   1.443       .  S
C985        N987   1.158       .  T
C986        N988   1.157       .  T
C990        C991   1.413       .  A
C991        C992   1.412       .  A
C991        C998   1.442       .  S
C992       C1984   1.516       .  S
C992        C993   1.411       .  A
C993        C994   1.405       .  A
C993        H996   1.085       .  S
C994        C997   1.442       .  S
C997        N999   1.158       .  T
C998       N1000   1.157       .  T
C1001      C1983   1.509       .  S
C1001      C1002   1.409       .  A
C1001      C1006   1.414       .  A
C1002      C1003   1.416       .  A
C1002      H1007   1.084       .  S
C1003      C1004   1.430       .  A
C1003      C1010   1.443       .  S
C1004      C1005   1.417       .  A
C1005      C1006   1.399       .  A
C1005      H1008   1.077       .  S
C1006      C2225   1.446       .  S
C1009      C2222   1.446   1_545  S
C1009      N1011   1.158       .  T
C1010      N1012   1.157       .  T
C1013      C1014   1.415       .  A
C1013      C1018   1.434       .  A
C1014      C1015   1.398       .  A
C1014      H1019   1.077       .  S
C1015      C1016   1.407       .  A
C1015      C1022   1.444       .  S
C1016      C1017   1.404       .  A
C1017      C1018   1.416       .  A
C1017      H1020   1.085       .  S
C1018      C1021   1.443       .  S
C1021      N1023   1.158       .  T
C1022      N1024   1.157       .  T
C1025      C1026   1.427       .  A
C1025      C1030   1.425       .  A
C1026      C1027   1.407       .  A
C1026      H1031   1.080       .  S
C1027      C1028   1.401   1_655  A
C1027      C2250   1.442       .  S
C1028      C1029   1.406   1_455  A
C1029      C1030   1.404       .  A
C1029      H1032   1.086   1_655  S
C1030      C1033   1.443       .  S
C1033      N1035   1.157       .  T
C1034      C2243   1.443       .  S
C1034      N1036   1.157   1_665  T
C1037      C1038   1.414       .  A
C1037      C1042   1.431       .  A
C1038      C1039   1.405       .  A
C1038      H1043   1.085       .  S
C1039      C1040   1.429       .  A
C1039      C1046   1.442       .  S
C1040      C1041   1.413       .  A
C1041      C1042   1.404       .  A
C1041      H1044   1.085       .  S
C1042      C1045   1.443       .  S
C1045      N1047   1.158       .  T
C1046      N2264   1.158       .  T
N1048      C2262   1.158   1_545  T
C1049      C1050   1.391   1_545  A
C1049      C1054   1.402       .  A
C1050      C2267   1.399       .  A
C1050      H1055   1.087   1_565  S
C1051      C2266   1.396       .  A
C1051      C1052   1.433       .  A
C1051      C1058   1.440       .  S
C1052      C2269   1.424       .  A
C1053      C2268   1.428       .  A
C1053      C1054   1.411   1_565  A
C1053      H1056   1.078       .  S
C1054      C1057   1.444       .  S
C1057      N1059   1.157       .  T
C1058      N1060   1.157       .  T
C1061      C1062   1.420       .  A
C1061      C1066   1.435       .  A
C1062      C1063   1.404       .  A
C1062      H1067   1.084       .  S
C1063      C1064   1.409       .  A
C1063      C1070   1.442       .  S
C1064      C1065   1.396       .  A
C1065      C1066   1.401       .  A
C1065      H1068   1.086       .  S
C1066      C1069   1.437       .  S
C1069      N1071   1.155       .  T
C1070      N1072   1.157       .  T
C1073      C1074   1.398   1_546  A
C1073      C1078   1.405   1_545  A
C1074      C1075   1.395   1_554  A
C1075      C2292   1.428       .  A
C1075      C1082   1.443       .  S
C1076      C2291   1.428       .  A
C1076      C2293   1.419       .  A
C1077      C2292   1.420       .  A
C1077      C1078   1.396       .  A
C1077      H2296   1.081       .  S
C1078      C1081   1.443   1_565  S
H1080      C2293   1.081       .  S
C1081      N1083   1.157       .  T
C1082      N2300   1.157   1_556  T
N1084      C2298   1.157   1_554  T
C1085      C1086   1.394       .  A
C1085      C1090   1.402       .  A
C1086      C1087   1.404       .  A
C1086      H1091   1.086       .  S
C1087      C1088   1.438       .  A
C1087      C1094   1.442       .  S
C1088      C1089   1.421       .  A
C1089      C1090   1.396       .  A
C1089      H1092   1.084       .  S
C1093      N1095   1.157       .  T
C1094      N1096   1.158       .  T
C1097      C1098   1.418       .  A
C1097      C1102   1.432       .  A
C1098      C1099   1.393       .  A
C1099      C1100   1.405       .  A
C1099      C1106   1.445   1_455  S
C1100      C1101   1.400       .  A
C1101      C1102   1.413       .  A
C1101      H1104   1.085       .  S
C1102      C1105   1.437       .  S
C1105      N1107   1.156       .  T
C1109      C1110   1.420       .  A
C1109      C1114   1.434       .  A
C1110      C1111   1.400       .  A
C1111      C1112   1.408       .  A
C1111      C1118   1.445       .  S
C1112      C1113   1.398       .  A
C1113      C1114   1.400       .  A
C1113      H1116   1.086       .  S
C1114      C1117   1.442       .  S
C1117      N1119   1.157       .  T
C1121      C1122   1.405       .  A
C1121      C1126   1.437       .  A
C1122      C1123   1.383       .  A
C1122      H1127   1.072       .  S
C1123      C1124   1.416       .  A
C1123      C1130   1.444       .  S
C1124      C1125   1.403       .  A
C1125      C1126   1.413       .  A
C1125      H1128   1.085       .  S
C1126      C1129   1.443       .  S
C1129      N1131   1.157       .  T
C1130      N1132   1.157       .  T
C1133      C1134   1.413       .  A
C1133      C1138   1.429       .  A
C1134      C1135   1.405       .  A
C1134      H1139   1.086       .  S
C1135      C1136   1.433       .  A
C1135      C1142   1.443       .  S
C1136      C1137   1.411       .  A
C1137      C1138   1.396       .  A
C1137      H1140   1.086       .  S
C1138      C1141   1.443       .  S
C1141      N1143   1.158       .  T
C1142      N1144   1.158       .  T
C1145      C1146   1.403       .  A
C1145      C1150   1.411       .  A
C1146      C1147   1.410       .  A
C1146      H1151   1.085       .  S
C1147      C1148   1.432       .  A
C1147      C1154   1.442       .  S
C1148      C1149   1.421       .  A
C1149      C1150   1.405       .  A
C1149      H1152   1.080       .  S
C1150      C1153   1.444       .  S
C1153      N1155   1.157       .  T
C1154      N2372   1.157       .  T
N1156      C2370   1.157       .  T
C1157      C1861   1.503       .  S
C1157      C1158   1.403       .  A
C1157      C1162   1.411       .  A
C1158      C1159   1.391       .  A
C1158      H2379   1.085       .  S
C1159      C1160   1.433       .  A
C1159      C1166   1.443   1_556  S
C1160      C1161   1.427       .  A
C1161      C1162   1.413       .  A
C1161      H1164   1.084       .  S
C1162      C1165   1.442       .  S
H1163      C2374   1.086       .  S
C1165      N1167   1.157       .  T
C1169      C1170   1.424       .  A
C1169      C1174   1.438       .  A
C1170      C1171   1.405       .  A
C1170      H1175   1.075       .  S
C1171      C1172   1.402       .  A
C1171      C1178   1.443       .  S
C1172      C1173   1.395       .  A
C1173      C1174   1.406       .  A
C1173      H1176   1.086       .  S
C1174      C1177   1.442   1_556  S
C1178      N1180   1.157       .  T
C1181      C1182   1.425       .  A
C1181      C1186   1.436       .  A
C1182      C1183   1.401       .  A
C1182      H1187   1.072       .  S
C1183      C1184   1.402       .  A
C1183      C2406   1.445       .  S
C1184      C1853   1.482       .  S
C1184      C1185   1.400       .  A
C1185      C1186   1.400       .  A
C1185      H1188   1.086       .  S
C1186      C1189   1.448       .  S
C1189      N1191   1.157       .  T
C1190      C2399   1.444       .  S
C1190      N1192   1.157       .  T
C1193      C1194   1.396       .  A
C1193      C1198   1.405       .  A
C1194      C1195   1.398       .  A
C1194      H1199   1.086       .  S
C1195      C1196   1.442       .  A
C1195      C1202   1.446       .  S
C1196      C1197   1.421       .  A
C1197      C1198   1.402       .  A
C1197      H1200   1.071       .  S
C1198      C1201   1.444       .  S
C1201      N1203   1.157       .  T
C1202      N1204   1.158       .  T
C1205      C1206   1.399       .  A
C1205      C1210   1.403       .  A
C1206      C1207   1.401       .  A
C1206      H1211   1.086       .  S
C1207      C1208   1.431       .  A
C1207      C1214   1.444       .  S
C1208      C1209   1.425       .  A
C1209      C1210   1.408       .  A
C1209      H1212   1.079       .  S
C1210      C1213   1.444       .  S
C1213      N1215   1.157       .  T
C1214      N1216   1.158       .  T
Zr1217     O1218   2.438       .  S
Zr1217     O1219   2.430       .  S
Zr1217     O1220   2.502       .  S
Zr1217     O1223   2.458       .  S
Zr1217     O1225   2.381       .  S
Zr1217     O1226   2.396       .  S
Zr1217     O1227   2.402       .  S
Zr1217     O1228   2.413       .  S
O1218      H1274   0.990       .  S
O1218      H1282   0.990       .  S
O1219      C1239   1.284       .  A
O1220      C1241   1.297       .  A
O1221     Zr1231   2.437       .  S
O1221      C1240   1.285       .  A
O1222     Zr1230   2.386       .  S
O1222      C1241   1.275       .  A
O1223      C1240   1.290       .  A
O1224     Zr1232   2.417       .  S
O1224      C1239   1.282       .  A
O1225     Zr1230   2.392       .  S
O1225     Zr1232   2.375       .  S
O1226     Zr1231   2.394       .  S
O1226     Zr1232   2.374       .  S
O1226      H1261   0.966       .  S
O1227     Zr1230   2.391       .  S
O1227     Zr1247   2.397       .  S
O1227      H1264   0.966       .  S
O1228     Zr1231   2.387       .  S
O1228     Zr1247   2.382       .  S
Zr1229     O1254   2.438       .  S
Zr1229     O1248   2.448       .  S
Zr1229     O1256   2.460       .  S
Zr1229     O1244   2.486       .  S
Zr1229     O1235   2.413       .  S
Zr1229     O1236   2.410       .  S
Zr1229     O1237   2.378       .  S
Zr1229     O1238   2.400       .  S
Zr1230     O1249   2.437       .  S
Zr1230     O1242   2.434       .  S
Zr1230     O1243   2.399       .  S
Zr1230     O1236   2.399       .  S
Zr1230     O1237   2.376       .  S
Zr1231     O1233   2.437       .  S
Zr1231     O1255   2.437       .  S
Zr1231     O1257   2.436       .  S
Zr1231     O1235   2.393       .  S
Zr1231     O1238   2.393       .  S
Zr1232     O1258   2.438       .  S
Zr1232     O1259   2.435       .  S
Zr1232     O1234   2.435       .  S
Zr1232     O1235   2.388       .  S
Zr1232     O1236   2.396       .  S
O1233      H1270   0.990       .  S
O1234      H1265   0.990       .  S
O1234      H1279   0.990       .  S
O1236      H1262   0.965       .  S
O1237     Zr1247   2.376       .  S
O1238     Zr1247   2.379       .  S
O1238      H1263   0.966       .  S
C1239      C1801   1.485       .  S
C1240      C1780   1.484       .  S
C1241      C1813   1.489       .  S
O1242      H1278   0.990       .  S
O1243      C1245   1.278   1_565  A
O1244      C1245   1.294   1_565  A
O1246     Zr1247   2.438       .  S
O1246      H1275   0.990       .  S
Zr1247     O1250   2.436       .  S
Zr1247     O1251   2.439       .  S
Zr1247     O1252   2.400       .  S
O1248      C1253   1.285   1_565  A
O1249      H1266   0.990       .  S
O1249      H1281   0.990       .  S
O1250      H1267   0.990       .  S
O1251      H1271   0.990       .  S
O1251      H1280   0.990       .  S
O1252      C1253   1.281   1_565  A
O1254      H1273   0.990       .  S
O1254      H1277   0.990   1_565  S
O1255      H1269   0.991       .  S
O1255      H1276   0.990       .  S
O1256      C1260   1.290       .  A
O1257      C1260   1.286       .  A
O1258      H1268   0.990       .  S
O1259      H1272   0.990       .  S
C1260      C1753   1.498       .  S
C1283      C1729   1.567       .  S
C1283      C1744   1.569       .  S
C1283      C1789   1.591       .  S
C1283      C1804   1.597       .  S
C1284      C2325   1.564       .  S
C1284      C2349   1.567       .  S
C1284      C1768   1.587       .  S
C1284      C1777   1.593       .  S
Zr1285     O1286   2.439       .  S
Zr1285     O1287   2.444       .  S
Zr1285     O1288   2.468       .  S
Zr1285     O1291   2.448       .  S
Zr1285     O1293   2.387       .  S
Zr1285     O1294   2.388       .  S
Zr1285     O1295   2.409       .  S
Zr1285     O1296   2.409       .  S
O1286      H1342   0.990       .  S
O1286      H1350   0.990       .  S
O1287      C1307   1.286       .  A
O1288      C1309   1.290       .  A
O1289     Zr1299   2.446       .  S
O1289      C1308   1.285       .  A
O1290     Zr1298   2.398       .  S
O1290      C1309   1.279       .  A
O1291      C1308   1.289       .  A
O1292     Zr1908   2.424       .  S
O1292      C1915   1.282       .  A
O1293     Zr1298   2.395       .  S
O1293     Zr1300   2.370   1_554  S
O1294     Zr1299   2.389       .  S
O1294     Zr1300   2.376   1_554  S
O1294      H1329   0.966       .  S
O1295     Zr1298   2.394       .  S
O1295     Zr1315   2.396       .  S
O1295      H1332   0.966       .  S
O1296     Zr1299   2.389       .  S
O1296     Zr1315   2.395       .  S
Zr1297     O1930   2.445       .  S
Zr1297     O1316   2.443       .  S
Zr1297     O1324   2.417       .  S
Zr1297     O1312   2.436       .  S
Zr1297     O1303   2.401       .  S
Zr1297     O1304   2.411       .  S
Zr1297     O1305   2.373       .  S
Zr1297     O1306   2.392       .  S
Zr1298     O1317   2.435       .  S
Zr1298     O1918   2.436   1_554  S
Zr1298     O1311   2.430       .  S
Zr1298     O1304   2.386       .  S
Zr1298     O1305   2.375       .  S
Zr1299     O1301   2.436       .  S
Zr1299     O1323   2.436       .  S
Zr1299     O1325   2.437       .  S
Zr1299     O1303   2.391       .  S
Zr1299     O1306   2.401       .  S
Zr1300     O1934   2.431       .  S
Zr1300     O1935   2.437       .  S
Zr1300     O1910   2.437       .  S
Zr1300     O1900   2.424       .  S
Zr1300     O1303   2.383   1_556  S
Zr1300     O1304   2.407   1_556  S
O1301      H1338   0.990       .  S
O1302     Zr1908   2.437       .  S
O1302      H1333   0.990       .  S
O1302      H1347   0.990       .  S
O1304      H1938   0.965   1_554  S
O1305     Zr1315   2.375       .  S
O1306     Zr1315   2.389       .  S
O1306      H1331   0.966       .  S
C1307      O1900   1.282   1_554  A
C1307      C2301   1.477   1_554  S
C1308      C1672   1.493       .  S
C1309      C1708   1.478   1_655  S
O1310     Zr1906   2.433       .  S
O1310      H1346   0.989       .  S
O1311      C1313   1.284       .  A
O1312      C1313   1.283       .  A
C1313      C2289   1.486   1_554  S
O1314     Zr1315   2.438       .  S
O1314      H1343   0.990       .  S
Zr1315     O1318   2.436       .  S
Zr1315     O1319   2.437       .  S
Zr1315     O1320   2.416       .  S
O1316      C1321   1.283       .  A
O1317      H1334   0.990       .  S
O1317      H1349   0.990       .  S
O1318      H1335   0.990       .  S
O1319      H1339   0.990       .  S
O1319      H1348   0.991       .  S
O1320      C1321   1.281       .  A
C1321      C1657   1.476       .  S
O1322     Zr1905   2.442       .  S
O1322      H1341   0.990       .  S
O1322      H1345   0.991       .  S
O1323      H1337   0.990       .  S
O1323      H1344   0.990       .  S
O1324      C1328   1.278       .  A
O1325      C1328   1.284       .  A
O1326     Zr1908   2.435       .  S
O1326      H1336   0.990       .  S
O1327     Zr1908   2.436       .  S
O1327      H1340   0.990       .  S
C1328      C1720   1.473       .  S
H1330      O1912   0.965       .  S
C1351      C1633   1.573       .  S
C1351      C1645   1.584       .  S
C1351      C1684   1.573       .  S
C1351      C1696   1.574       .  S
C1352      C1648   1.574       .  S
C1352      C1660   1.574       .  S
C1352      C1669   1.588       .  S
C1352      C1756   1.588       .  S
Zr1353     O1354   2.439       .  S
Zr1353     O1355   2.457       .  S
Zr1353     O1356   2.484       .  S
Zr1353     O1359   2.467       .  S
Zr1353     O1361   2.390       .  S
Zr1353     O1362   2.397       .  S
Zr1353     O1363   2.412       .  S
Zr1353     O1364   2.407       .  S
O1354      H1410   0.990       .  S
O1354      H1418   0.991       .  S
O1355      C1375   1.288       .  A
O1356      C1377   1.292       .  A
O1357     Zr1367   2.407       .  S
O1357      C1376   1.282       .  A
O1358     Zr1366   2.379       .  S
O1358      C1377   1.274       .  A
O1359      C1376   1.291       .  A
O1360     Zr1368   2.435       .  S
O1360      C1375   1.284       .  A
O1361     Zr1366   2.398       .  S
O1361     Zr1368   2.366       .  S
O1362     Zr1367   2.397       .  S
O1362     Zr1368   2.367       .  S
O1362      H1397   0.965       .  S
O1363     Zr1366   2.399       .  S
O1363     Zr1383   2.394       .  S
O1363      H1400   0.966       .  S
O1364     Zr1367   2.391       .  S
O1364     Zr1383   2.374       .  S
Zr1365     O1390   2.444       .  S
Zr1365     O1384   2.447       .  S
Zr1365     O1392   2.456       .  S
Zr1365     O1380   2.469       .  S
Zr1365     O1371   2.409       .  S
Zr1365     O1372   2.415       .  S
Zr1365     O1373   2.373       .  S
Zr1365     O1374   2.396       .  S
Zr1366     O1385   2.436       .  S
Zr1366     O1378   2.434       .  S
Zr1366     O1379   2.424       .  S
Zr1366     O1372   2.384       .  S
Zr1366     O1373   2.363       .  S
Zr1367     O1369   2.435       .  S
Zr1367     O1391   2.440       .  S
Zr1367     O1393   2.428       .  S
Zr1367     O1371   2.382       .  S
Zr1367     O1374   2.394       .  S
Zr1368     O1394   2.436       .  S
Zr1368     O1395   2.434       .  S
Zr1368     O1370   2.436       .  S
Zr1368     O1371   2.395       .  S
Zr1368     O1372   2.402       .  S
O1369      H1406   0.990       .  S
O1370      H1401   0.990       .  S
O1370      H1415   0.989       .  S
O1372      H1398   0.964       .  S
O1373     Zr1383   2.388       .  S
O1374     Zr1383   2.392       .  S
O1374      H1399   0.967       .  S
C1377      C1732   1.492       .  S
O1378      H1414   0.990       .  S
O1379      C1381   1.282       .  A
O1380      C1381   1.287       .  A
C1381      C1624   1.487       .  S
O1382     Zr1383   2.436   1_556  S
O1382      H2019   0.990       .  S
Zr1383     O1386   2.438   1_554  S
Zr1383     O1387   2.438   1_554  S
Zr1383     O1388   2.391       .  S
O1384      C1389   1.284       .  A
O1385      H1402   0.990       .  S
O1385      H1417   0.989       .  S
O1386      H1403   0.991       .  S
O1387      H2015   0.989       .  S
O1387      H1416   0.990       .  S
O1388      C1389   1.276       .  A
C1389      C1588   1.476       .  S
O1390      H1409   0.990       .  S
O1390      H1413   0.990       .  S
O1391      H1405   0.990       .  S
O1391      H1412   0.990       .  S
O1392      C1396   1.288       .  A
O1393      C1396   1.284       .  A
O1394      H1404   0.990       .  S
O1395      H1408   0.990       .  S
C1396      C1573   1.502       .  S
H1407      O1995   0.990       .  S
H1411      O1990   0.990       .  S
C1419      C1561   1.582       .  S
C1419      C1612   1.588       .  S
C1419      C1621   1.577       .  S
C1419      C1816   1.583       .  S
C1420      C1549   1.579       .  S
C1420      C1564   1.583       .  S
C1420      C2193   1.577       .  S
C1420      C1597   1.573       .  S
Zr1421     O1422   2.439   1_565  S
Zr1421     O1424   2.494       .  S
Zr1421     O1429   2.383       .  S
Zr1421     O1430   2.396       .  S
Zr1421     O1431   2.401       .  S
Zr1421     O1432   2.413       .  S
O1422      H1486   0.990       .  S
O1423      C1443   1.284       .  A
O1424      C1445   1.294       .  A
O1425      C1444   1.279       .  A
O1426     Zr1434   2.375       .  S
O1426      C1445   1.275       .  A
O1427      C1444   1.290       .  A
O1428      C1443   1.276       .  A
O1429     Zr1434   2.389       .  S
O1429     Zr1436   2.385       .  S
O1430     Zr1435   2.397       .  S
O1430     Zr1436   2.374       .  S
O1431     Zr1434   2.397       .  S
O1431     Zr1451   2.382       .  S
O1431      H1468   0.965       .  S
O1432     Zr1435   2.390       .  S
O1432     Zr1451   2.384       .  S
Zr1433     O1458   2.443       .  S
Zr1433     O1452   2.448       .  S
Zr1433     O1460   2.441       .  S
Zr1433     O1448   2.434       .  S
Zr1433     O1439   2.405       .  S
Zr1433     O1440   2.404       .  S
Zr1433     O1441   2.374       .  S
Zr1433     O1442   2.387       .  S
Zr1434     O1453   2.438       .  S
Zr1434     O1446   2.436       .  S
Zr1434     O1447   2.392       .  S
Zr1434     O1440   2.387       .  S
Zr1434     O1441   2.384       .  S
Zr1435     O1437   2.437       .  S
Zr1435     O1459   2.438       .  S
Zr1435     O1461   2.424       .  S
Zr1435     O1439   2.392       .  S
Zr1435     O1442   2.391       .  S
Zr1436     O1462   2.436       .  S
Zr1436     O1463   2.436       .  S
Zr1436     O1438   2.438       .  S
Zr1436     O1439   2.390       .  S
Zr1436     O1440   2.393       .  S
O1437      H1474   0.990       .  S
O1438      H2077   0.990       .  S
O1438      H1483   0.990       .  S
O1440      H1466   0.965       .  S
O1441     Zr1451   2.378       .  S
O1442     Zr1451   2.378       .  S
O1442      H1467   0.966       .  S
C1443      C1537   1.463       .  S
C1444      C1513   1.497       .  S
C1445      C1636   1.480       .  S
O1446      H1482   0.990       .  S
O1447      C1449   1.276       .  A
O1448      C1449   1.283       .  A
C1449      C1525   1.456       .  S
O1450     Zr1451   2.434       .  S
O1450      H1479   0.990       .  S
Zr1451     O1454   2.434       .  S
Zr1451     O1455   2.438       .  S
Zr1451     O1456   2.403       .  S
O1452      C1457   1.287       .  A
O1453      H1470   0.990       .  S
O1453      H1485   0.990       .  S
O1454      H1471   0.990       .  S
O1455      H1475   0.990       .  S
O1455      H1484   0.990       .  S
O1456      C1457   1.278       .  A
C1457      C1501   1.497       .  S
O1458      H1477   0.990       .  S
O1458      H1481   0.991       .  S
O1459      H1473   0.989       .  S
O1460      C1464   1.284       .  A
O1461      C1464   1.281       .  A
O1463      H1476   0.990       .  S
C1464      C1552   1.470       .  S
H1469      O2046   0.990       .  S
C1487      C1489   1.573       .  S
C1487      C2136   1.557       .  S
C1487      C2148   1.573       .  S
C1487      C1705   1.580       .  S
C1488      C1492   1.578       .  S
C1488      C1504   1.578       .  S
C1488      C1516   1.564       .  S
C1488      C1576   1.585       .  S
C1489      C1490   1.413       .  A
C1489      C1494   1.433       .  A
C1490      C1491   1.404       .  A
C1490      H1495   1.085       .  S
C1491      C1492   1.430       .  A
C1491      C1498   1.443       .  S
C1492      C1493   1.411       .  A
C1493      C1494   1.396       .  A
C1493      H1496   1.085       .  S
C1494      C1497   1.444       .  S
C1497      N1499   1.158       .  T
C1498      N1500   1.158       .  T
C1501      C1502   1.404       .  A
C1501      C1506   1.417       .  A
C1502      C1503   1.406       .  A
C1502      H1507   1.085       .  S
C1503      C1504   1.432       .  A
C1503      C1510   1.445       .  S
C1504      C1505   1.411       .  A
C1505      C1506   1.393       .  A
C1505      H1508   1.074       .  S
C1506      C1509   1.446       .  S
C1509      N1511   1.157       .  T
C1510      N1512   1.157       .  T
C1513      C1514   1.403       .  A
C1513      C1518   1.419       .  A
C1514      C1515   1.404       .  A
C1514      H1519   1.085       .  S
C1515      C1516   1.430       .  A
C1515      C1522   1.444       .  S
C1516      C1517   1.412       .  A
C1517      C1518   1.396       .  A
C1517      H1520   1.079       .  S
C1518      C1521   1.446       .  S
C1521      N1523   1.157       .  T
C1522      N1524   1.157       .  T
C1525      C1526   1.393       .  A
C1525      C1530   1.402       .  A
C1526      C1527   1.397       .  A
C1526      H1531   1.086       .  S
C1527      C1528   1.433       .  A
C1527      C1534   1.444       .  S
C1528      C2095   1.556       .  S
C1528      C1529   1.417       .  A
C1529      C1530   1.389       .  A
C1529      H2140   1.083       .  S
C1530      C1533   1.445       .  S
H1532      C2137   1.084       .  S
C1533      N1535   1.157       .  T
C1534      N1536   1.158       .  T
C1537      C1538   1.394       .  A
C1537      C1542   1.399       .  A
C1538      C1539   1.398       .  A
C1538      H1543   1.086       .  S
C1539      C1540   1.431       .  A
C1539      C1546   1.443       .  S
C1540      C2095   1.568       .  S
C1540      C1541   1.422       .  A
C1541      C1542   1.397       .  A
C1541      H2152   1.081       .  S
C1542      C1545   1.444       .  S
H1544      C2149   1.080       .  S
C1545      N1547   1.157       .  T
C1546      N1548   1.157       .  T
C1549      C1550   1.424       .  A
C1549      C1554   1.434       .  A
C1550      C1551   1.403       .  A
C1550      H1555   1.079       .  S
C1551      C1552   1.400       .  A
C1551      C1558   1.444       .  S
C1552      C1553   1.392       .  A
C1553      C1554   1.399       .  A
C1553      H1556   1.086       .  S
C1554      C1557   1.441       .  S
C1557      N2167   1.157       .  T
C1558      N1560   1.157       .  T
N1559      C2165   1.157   1_554  T
C1561      C1562   1.412       .  A
C1561      C1566   1.431       .  A
C1562      C1563   1.399       .  A
C1562      H1567   1.082       .  S
C1563      C1564   1.422       .  A
C1563      C1570   1.443       .  S
C1564      C1565   1.417       .  A
C1565      C1566   1.410       .  A
C1565      H1568   1.082       .  S
C1566      C1569   1.443       .  S
C1569      N1571   1.158       .  T
C1570      N1572   1.157       .  T
C1573      C1574   1.408       .  A
C1573      C1578   1.413       .  A
C1574      C1575   1.406       .  A
C1574      H1579   1.085       .  S
C1575      C1576   1.428       .  A
C1575      C1582   1.444       .  S
C1576      C1577   1.418       .  A
C1577      C1578   1.397       .  A
C1577      H1580   1.077       .  S
C1578      C1581   1.444       .  S
C1581      N1583   1.157       .  T
C1582      N1584   1.157       .  T
C1585      C2028   1.571       .  S
C1585      C1586   1.420       .  A
C1585      C2198   1.436   1_556  A
C1586      C1587   1.391       .  A
C1586      H1591   1.082       .  S
C1587      C1588   1.403   1_556  A
C1587      C1594   1.445       .  S
C1588      C1589   1.398       .  A
C1589      C2198   1.404       .  A
C1589      H1592   1.086       .  S
C1590      C2193   1.438       .  A
C1590      C2197   1.405       .  A
C1590      C1593   1.442       .  S
C1593      N1595   1.158       .  T
C1594      N1596   1.157       .  T
C1597      C2206   1.422       .  A
C1597      C2210   1.429       .  A
C1598      C2205   1.423       .  A
C1598      C1599   1.408   1_556  A
C1598      H2211   1.082       .  S
C1599      C1600   1.411       .  A
C1599      C1606   1.443       .  S
C1600      C1601   1.408   1_554  A
C1601      C1602   1.400       .  A
C1601      H1604   1.085   1_565  S
C1602      C2205   1.428       .  A
C1602      C1605   1.443       .  S
H1603      C2206   1.083       .  S
C1605      N1607   1.158       .  T
C1606      N1608   1.157       .  T
C1609      C1610   1.410   1_545  A
C1609      C1614   1.414   1_545  A
C1610      C1611   1.416       .  A
C1610      H1615   1.084       .  S
C1611      C1612   1.430       .  A
C1611      C1618   1.443       .  S
C1612      C1613   1.417       .  A
C1613      C1614   1.400       .  A
C1613      H1616   1.078       .  S
C1617      N1619   1.157       .  T
C1618      N1620   1.157       .  T
C1621      C1622   1.414       .  A
C1621      C1626   1.434       .  A
C1622      C1623   1.394       .  A
C1622      H1627   1.077       .  S
C1623      C1624   1.405       .  A
C1623      C1630   1.444       .  S
C1624      C1625   1.403       .  A
C1625      C1626   1.415       .  A
C1625      H1628   1.085       .  S
C1626      C1629   1.443       .  S
C1629      N1631   1.158       .  T
C1630      N1632   1.157       .  T
C1633      C1634   1.427       .  A
C1633      C1638   1.424       .  A
C1634      C1635   1.403       .  A
C1634      H1639   1.080       .  S
C1635      C1636   1.398   1_655  A
C1636      C1637   1.405   1_455  A
C1637      C1638   1.401       .  A
C1637      H1640   1.086   1_655  S
C1638      C1641   1.444       .  S
C1641      N1643   1.157       .  T
C1642      N1644   1.157   1_655  T
C1645      C1646   1.416       .  A
C1645      C1650   1.429       .  A
C1646      C1647   1.404       .  A
C1646      H1651   1.084       .  S
C1647      C1648   1.428       .  A
C1647      C1654   1.443       .  S
C1648      C1649   1.415       .  A
C1649      C1650   1.406       .  A
C1649      H1652   1.085       .  S
C1650      C1653   1.442       .  S
C1653      N1655   1.158       .  T
C1657      C1658   1.395       .  A
C1657      C1662   1.402       .  A
C1658      H1663   1.086       .  S
C1659      C1660   1.431       .  A
C1659      C1666   1.440       .  S
C1661      C1662   1.403       .  A
C1661      H1664   1.079       .  S
C1662      C1665   1.444       .  S
C1665      N1667   1.157       .  T
C1666      N1668   1.157       .  T
C1669      C1670   1.420       .  A
C1669      C1674   1.437       .  A
C1670      C1671   1.406       .  A
C1670      H1675   1.084       .  S
C1671      C1672   1.410       .  A
C1671      C1678   1.442       .  S
C1672      C1673   1.396       .  A
C1673      C1674   1.404       .  A
C1673      H1676   1.086       .  S
C1674      C1677   1.438       .  S
C1677      N1679   1.156       .  T
C1678      N1680   1.157       .  T
C1681      C1921   1.479       .  S
C1681      C1682   1.395       .  A
C1681      C1686   1.409       .  A
C1682      C1683   1.395       .  A
C1682      H2295   1.086       .  S
C1683      C1690   1.442       .  S
C1685      C1686   1.402       .  A
C1686      C1689   1.444       .  S
H1687      C2290   1.086       .  S
C1689      N1691   1.157       .  T
C1693      C1915   1.471       .  S
C1693      C1694   1.392       .  A
C1693      C1698   1.403       .  A
C1694      C1695   1.403       .  A
C1694      H1699   1.086       .  S
C1695      C1696   1.440       .  A
C1695      C1702   1.442       .  S
C1696      C1697   1.421       .  A
C1697      C1698   1.398       .  A
C1697      H1700   1.084       .  S
C1698      C2309   1.445       .  S
C1701      C2306   1.445       .  S
C1701      N1703   1.157   1_556  T
C1702      N1704   1.158       .  T
C1705      C1706   1.419       .  A
C1705      C1710   1.434       .  A
C1706      C1707   1.393       .  A
C1706      H2319   1.082   1_554  S
C1707      C1708   1.403       .  A
C1707      C1714   1.445   1_454  S
C1708      C1709   1.398       .  A
C1709      C1710   1.411       .  A
C1709      H1712   1.085       .  S
C1710      C1713   1.438       .  S
H1711      C2314   1.083       .  S
C1713      N1715   1.156       .  T
C1714      N2324   1.157       .  T
N1716      C2322   1.157       .  T
C1717      C1892   1.563   1_554  S
C1717      C1718   1.419       .  A
C1717      C1722   1.432       .  A
C1718      C1719   1.399       .  A
C1718      H2331   1.078   1_554  S
C1719      C1720   1.405       .  A
C1719      C1726   1.444       .  S
C1720      C1721   1.396       .  A
C1721      C1722   1.396       .  A
C1721      H1724   1.086       .  S
C1722      C1725   1.442       .  S
H1723      C2326   1.077       .  S
C1725      N1727   1.157       .  T
C1726      N2336   1.157   1_554  T
N1728      C2334   1.157       .  T
C1729      C1730   1.404       .  A
C1729      C1734   1.436       .  A
C1730      C1731   1.380       .  A
C1730      H1735   1.070       .  S
C1731      C1732   1.417       .  A
C1731      C1738   1.447       .  S
C1732      C1733   1.404       .  A
C1733      C1734   1.414       .  A
C1733      H1736   1.084       .  S
C1734      C1737   1.444       .  S
C1737      N1739   1.157       .  T
C1738      N1740   1.156       .  T
C1741      C1892   1.567   1_554  S
C1741      C1742   1.411       .  A
C1741      C1746   1.433       .  A
C1742      C1743   1.403       .  A
C1742      H1747   1.086   1_554  S
C1743      C1744   1.433       .  A
C1743      C1750   1.442       .  S
C1744      C1745   1.409       .  A
C1745      C1746   1.393       .  A
C1745      H1748   1.087       .  S
C1746      C1749   1.444       .  S
C1749      N1751   1.158       .  T
C1750      N1752   1.158       .  T
C1753      C1754   1.400       .  A
C1753      C1758   1.412       .  A
C1754      C1755   1.409       .  A
C1754      H1759   1.085       .  S
C1755      C1756   1.434       .  A
C1755      C1762   1.442       .  S
C1756      C1757   1.418       .  A
C1757      C1758   1.404       .  A
C1757      H1760   1.080       .  S
C1758      C1761   1.444       .  S
C1761      N1763   1.157       .  T
C1765      C1766   1.402       .  A
C1765      C1770   1.412       .  A
C1766      C1767   1.391       .  A
C1767      C1768   1.435       .  A
C1767      C1774   1.442       .  S
C1768      C1769   1.425       .  A
C1769      C1770   1.413       .  A
C1769      H1772   1.085       .  S
C1770      C1773   1.442       .  S
C1773      N1775   1.157       .  T
C1774      N2384   1.157       .  T
N1776      C2382   1.156       .  T
C1777      C1778   1.423       .  A
C1777      C1782   1.437       .  A
C1778      C1779   1.405       .  A
C1778      H1783   1.075       .  S
C1779      C1780   1.403       .  A
C1779      C1786   1.443       .  S
C1780      C1781   1.395       .  A
C1781      C1782   1.404       .  A
C1781      H1784   1.086       .  S
C1782      C1785   1.442       .  S
C1785      N2395   1.157       .  T
C1786      N1788   1.157       .  T
N1787      C2393   1.157       .  T
C1789      C1790   1.426       .  A
C1789      C1794   1.434       .  A
C1790      C1791   1.404       .  A
C1790      H1795   1.073       .  S
C1791      C1792   1.405       .  A
C1792      C1793   1.402       .  A
C1793      C1794   1.399       .  A
C1793      H1796   1.085       .  S
C1794      C1797   1.448       .  S
C1797      N1799   1.157       .  T
C1798      N1800   1.157       .  T
C1801      C1802   1.396       .  A
C1801      C1806   1.405       .  A
C1802      C1803   1.398       .  A
C1802      H1807   1.086       .  S
C1803      C1804   1.443       .  A
C1803      C1810   1.446       .  S
C1804      C1805   1.421       .  A
C1805      C1806   1.401       .  A
C1805      H1808   1.071       .  S
C1806      C1809   1.445       .  S
C1809      N1811   1.157       .  T
C1810      N1812   1.158       .  T
C1813      C1814   1.402       .  A
C1813      C1818   1.404       .  A
C1814      C1815   1.405       .  A
C1814      H1819   1.086       .  S
C1815      C1816   1.429       .  A
C1815      C1822   1.443       .  S
C1816      C1817   1.427       .  A
C1817      C1818   1.410       .  A
C1817      H1820   1.079       .  S
C1818      C1821   1.444       .  S
C1821      N1823   1.157       .  T
C1822      N1824   1.158       .  T
Zr1825     O1826   2.439       .  S
Zr1825     O1827   2.433       .  S
Zr1825     O1828   2.491       .  S
Zr1825     O1831   2.455       .  S
Zr1825     O1833   2.383       .  S
Zr1825     O1834   2.392       .  S
Zr1825     O1835   2.398       .  S
Zr1825     O1836   2.408       .  S
O1826      H1882   0.990       .  S
O1826      H1890   0.990       .  S
O1827      C1847   1.283       .  A
O1828      C1849   1.295       .  A
O1829     Zr1839   2.431       .  S
O1829      C1848   1.284       .  A
O1830     Zr1838   2.391       .  S
O1830      C1849   1.277       .  A
O1831      C1848   1.289       .  A
O1832     Zr1840   2.413       .  S
O1832      C1847   1.282       .  A
O1833     Zr1838   2.389       .  S
O1833     Zr1840   2.373       .  S
O1834     Zr1839   2.391       .  S
O1834     Zr1840   2.377       .  S
O1834      H1869   0.965       .  S
O1835     Zr1838   2.392       .  S
O1835     Zr1855   2.382       .  S
O1835      H1872   0.966       .  S
O1836     Zr1839   2.393       .  S
O1836     Zr1855   2.385       .  S
Zr1837     O1862   2.439       .  S
Zr1837     O1856   2.466   1_565  S
Zr1837     O1864   2.470       .  S
Zr1837     O1852   2.475       .  S
Zr1837     O1843   2.408       .  S
Zr1837     O1844   2.418       .  S
Zr1837     O1845   2.380       .  S
Zr1837     O1846   2.398       .  S
Zr1838     O1857   2.438       .  S
Zr1838     O1850   2.435       .  S
Zr1838     O1851   2.394       .  S
Zr1838     O1844   2.399       .  S
Zr1838     O1845   2.385       .  S
Zr1839     O1841   2.437       .  S
Zr1839     O1863   2.440       .  S
Zr1839     O1865   2.437       .  S
Zr1839     O1843   2.393       .  S
Zr1839     O1846   2.401       .  S
Zr1840     O1866   2.433       .  S
Zr1840     O1867   2.434       .  S
Zr1840     O1842   2.438       .  S
Zr1840     O1843   2.393       .  S
Zr1840     O1844   2.390       .  S
O1841      H1878   0.990       .  S
O1842      H1873   0.990       .  S
O1842      H1887   0.990       .  S
O1844      H1870   0.965       .  S
O1845     Zr1855   2.369       .  S
O1846     Zr1855   2.386       .  S
O1846      H1871   0.966       .  S
C1847      C2409   1.482       .  S
C1848      C2388   1.482       .  S
C1849      C2421   1.482       .  S
O1850      H1886   0.990       .  S
O1851      C1853   1.278   1_565  A
O1852      C1853   1.292   1_565  A
O1854     Zr1855   2.434       .  S
O1854      H1883   0.990       .  S
Zr1855     O1858   2.438       .  S
Zr1855     O1859   2.436       .  S
Zr1855     O1860   2.393       .  S
O1856      C1861   1.287       .  A
O1857      H1874   0.990       .  S
O1857      H1889   0.990       .  S
O1858      H1875   0.990       .  S
O1859      H1879   0.990       .  S
O1859      H1888   0.990       .  S
O1860      C1861   1.278   1_565  A
O1862      H1881   0.990       .  S
O1862      H1885   0.990   1_565  S
O1863      H1877   0.990       .  S
O1863      H1884   0.990       .  S
O1864      C1868   1.292       .  A
O1865      C1868   1.285       .  A
O1866      H1876   0.989       .  S
O1867      H1880   0.990       .  S
C1868      C2361   1.497       .  S
C1891      C2337   1.567       .  S
C1891      C2352   1.573       .  S
C1891      C2397   1.592       .  S
C1891      C2412   1.591       .  S
C1892      C2376   1.596       .  S
C1892      C2385   1.592       .  S
Zr1893     O1894   2.439       .  S
Zr1893     O1895   2.437       .  S
Zr1893     O1896   2.471       .  S
Zr1893     O1899   2.450       .  S
Zr1893     O1901   2.386       .  S
Zr1893     O1902   2.390       .  S
Zr1893     O1903   2.408       .  S
Zr1893     O1904   2.411       .  S
O1894      H1950   0.990       .  S
O1894      H1958   0.990       .  S
O1895      C1915   1.284       .  A
O1896      C1917   1.291       .  A
O1897     Zr1907   2.438       .  S
O1897      C1916   1.283       .  A
O1898     Zr1906   2.382       .  S
O1898      C1917   1.276       .  A
O1899      C1916   1.290       .  A
O1901     Zr1906   2.395       .  S
O1901     Zr1908   2.371       .  S
O1902     Zr1907   2.382       .  S
O1902     Zr1908   2.378       .  S
O1902      H1937   0.966       .  S
O1903     Zr1906   2.397       .  S
O1903     Zr1923   2.398       .  S
O1903      H1940   0.966       .  S
O1904     Zr1907   2.393       .  S
O1904     Zr1923   2.401       .  S
Zr1905     O1924   2.443       .  S
Zr1905     O1932   2.409       .  S
Zr1905     O1920   2.431       .  S
Zr1905     O1911   2.401       .  S
Zr1905     O1912   2.405       .  S
Zr1905     O1913   2.371       .  S
Zr1905     O1914   2.389       .  S
Zr1906     O1925   2.435       .  S
Zr1906     O1919   2.420       .  S
Zr1906     O1912   2.379       .  S
Zr1906     O1913   2.375       .  S
Zr1907     O1909   2.435       .  S
Zr1907     O1931   2.433       .  S
Zr1907     O1933   2.425       .  S
Zr1907     O1911   2.388       .  S
Zr1907     O1914   2.396       .  S
Zr1908     O1911   2.383       .  S
Zr1908     O1912   2.396       .  S
O1909      H1946   0.990       .  S
O1910      H1941   0.990       .  S
O1910      H1955   0.990       .  S
O1913     Zr1923   2.375       .  S
O1914     Zr1923   2.385       .  S
O1914      H1939   0.966       .  S
C1916      C2280   1.493       .  S
C1917      C2316   1.472   1_655  S
O1918      H1954   0.990       .  S
O1919      C1921   1.283       .  A
O1920      C1921   1.282       .  A
O1922     Zr1923   2.438       .  S
O1922      H1951   0.990       .  S
Zr1923     O1926   2.438       .  S
Zr1923     O1927   2.440       .  S
Zr1923     O1928   2.412       .  S
O1924      C1929   1.283       .  A
O1925      H1942   0.990       .  S
O1925      H1957   0.990       .  S
O1926      H1943   0.990       .  S
O1927      H1947   0.990       .  S
O1927      H1956   0.991       .  S
O1928      C1929   1.280       .  A
C1929      C2265   1.477       .  S
O1930      H1949   0.991       .  S
O1930      H1953   0.991       .  S
O1931      H1945   0.990       .  S
O1931      H1952   0.990       .  S
O1932      C1936   1.278       .  A
O1933      C1936   1.281       .  A
O1934      H1944   0.990   1_556  S
O1935      H1948   0.990       .  S
C1936      C2328   1.471       .  S
C1959      C2241   1.574       .  S
C1959      C2253   1.585       .  S
C1959      C2292   1.571       .  S
C1959      C2304   1.578       .  S
C1960      C2256   1.572       .  S
C1960      C2268   1.585       .  S
C1960      C2277   1.586       .  S
C1960      C2364   1.595       .  S
Zr1961     O1962   2.439       .  S
Zr1961     O1963   2.465       .  S
Zr1961     O1964   2.503       .  S
Zr1961     O1967   2.501       .  S
Zr1961     O1969   2.393       .  S
Zr1961     O1970   2.397       .  S
Zr1961     O1971   2.420       .  S
Zr1961     O1972   2.411       .  S
O1962      H2018   0.991       .  S
O1962      H2026   0.990       .  S
O1963      C1983   1.289       .  A
O1964      C1985   1.295       .  A
O1965     Zr1975   2.411       .  S
O1965      C1984   1.283       .  A
O1966     Zr1974   2.376       .  S
O1966      C1985   1.272       .  A
O1967      C1984   1.298       .  A
O1968     Zr1976   2.433       .  S
O1968      C1983   1.284       .  A
O1969     Zr1974   2.400       .  S
O1969     Zr1976   2.367       .  S
O1970     Zr1975   2.398       .  S
O1970     Zr1976   2.371       .  S
O1970      H2005   0.966       .  S
O1971     Zr1974   2.407       .  S
O1971     Zr1991   2.394       .  S
O1971      H2008   0.966       .  S
O1972     Zr1975   2.395       .  S
O1972     Zr1991   2.383       .  S
Zr1973     O1998   2.440       .  S
Zr1973     O1992   2.465       .  S
Zr1973     O2000   2.453       .  S
Zr1973     O1988   2.471       .  S
Zr1973     O1979   2.415       .  S
Zr1973     O1980   2.419       .  S
Zr1973     O1981   2.368       .  S
Zr1973     O1982   2.393       .  S
Zr1974     O1993   2.434       .  S
Zr1974     O1986   2.434       .  S
Zr1974     O1987   2.426       .  S
Zr1974     O1980   2.382       .  S
Zr1974     O1981   2.369       .  S
Zr1975     O1977   2.435       .  S
Zr1975     O1999   2.438       .  S
Zr1975     O2001   2.442       .  S
Zr1975     O1979   2.380       .  S
Zr1975     O1982   2.394       .  S
Zr1976     O2002   2.437       .  S
Zr1976     O2003   2.438       .  S
Zr1976     O1978   2.438       .  S
Zr1976     O1979   2.395       .  S
Zr1976     O1980   2.406       .  S
O1977      H2014   0.990       .  S
O1978      H2009   0.990       .  S
O1978      H2023   0.989       .  S
O1980      H2006   0.965       .  S
O1981     Zr1991   2.388       .  S
O1982     Zr1991   2.389       .  S
O1982      H2007   0.966       .  S
C1985      C2340   1.496       .  S
O1986      H2022   0.990       .  S
O1987      C1989   1.283       .  A
O1988      C1989   1.288       .  A
C1989      C2232   1.490       .  S
O1990     Zr1991   2.435       .  S
Zr1991     O1994   2.437       .  S
Zr1991     O1995   2.437       .  S
Zr1991     O1996   2.397       .  S
O1992      C1997   1.288       .  A
O1993      H2010   0.990       .  S
O1993      H2025   0.989       .  S
O1994      H2011   0.990       .  S
O1995      H2024   0.990       .  S
O1996      C1997   1.276       .  A
C1997      C2196   1.484       .  S
O1998      H2017   0.990       .  S
O1998      H2021   0.991       .  S
O1999      H2013   0.990       .  S
O1999      H2020   0.990       .  S
O2000      C2004   1.287       .  A
O2001      C2004   1.287       .  A
O2002      H2012   0.990       .  S
O2003      H2016   0.990       .  S
C2004      C2181   1.505       .  S
C2027      C2169   1.578       .  S
C2027      C2220   1.587       .  S
C2027      C2229   1.579       .  S
C2027      C2424   1.577       .  S
C2028      C2157   1.576       .  S
C2028      C2172   1.577       .  S
C2028      C2205   1.571       .  S
Zr2029     O2030   2.440   1_565  S
Zr2029     O2032   2.500       .  S
Zr2029     O2037   2.384       .  S
Zr2029     O2038   2.393       .  S
Zr2029     O2039   2.404       .  S
Zr2029     O2040   2.411       .  S
O2030      H2094   0.991   1_545  S
O2031      C2051   1.286       .  A
O2032      C2053   1.295       .  A
O2033      C2052   1.278       .  A
O2034     Zr2042   2.374       .  S
O2034      C2053   1.274       .  A
O2035      C2052   1.291       .  A
O2036      C2051   1.278       .  A
O2037     Zr2042   2.390       .  S
O2037     Zr2044   2.382       .  S
O2038     Zr2043   2.390       .  S
O2038     Zr2044   2.376       .  S
O2039     Zr2042   2.396       .  S
O2039     Zr2059   2.384       .  S
O2039      H2076   0.965       .  S
O2040     Zr2043   2.389       .  S
O2040     Zr2059   2.386       .  S
Zr2041     O2066   2.443       .  S
Zr2041     O2060   2.445       .  S
Zr2041     O2068   2.445       .  S
Zr2041     O2056   2.433       .  S
Zr2041     O2047   2.404       .  S
Zr2041     O2048   2.408       .  S
Zr2041     O2049   2.377       .  S
Zr2041     O2050   2.389       .  S
Zr2042     O2061   2.437       .  S
Zr2042     O2054   2.436       .  S
Zr2042     O2055   2.398       .  S
Zr2042     O2048   2.387       .  S
Zr2042     O2049   2.378       .  S
Zr2043     O2045   2.437       .  S
Zr2043     O2067   2.439       .  S
Zr2043     O2069   2.414       .  S
Zr2043     O2047   2.391       .  S
Zr2043     O2050   2.393       .  S
Zr2044     O2070   2.435       .  S
Zr2044     O2071   2.436   1_556  S
Zr2044     O2046   2.438   1_556  S
Zr2044     O2047   2.392       .  S
Zr2044     O2048   2.379       .  S
O2045      H2082   0.990       .  S
O2046      H2091   0.990       .  S
O2048      H2074   0.964       .  S
O2049     Zr2059   2.374       .  S
O2050     Zr2059   2.381       .  S
O2050      H2075   0.966       .  S
C2051      C2145   1.469       .  S
C2052      C2121   1.501       .  S
C2053      C2244   1.485       .  S
O2054      H2090   0.990       .  S
O2055      C2057   1.277       .  A
O2056      C2057   1.283       .  A
C2057      C2133   1.455       .  S
O2058     Zr2059   2.435       .  S
O2058      H2087   0.990       .  S
Zr2059     O2062   2.436       .  S
Zr2059     O2063   2.437       .  S
Zr2059     O2064   2.405       .  S
O2060      C2065   1.285       .  A
O2061      H2078   0.990       .  S
O2061      H2093   0.990       .  S
O2062      H2079   0.990       .  S
O2063      H2083   0.990       .  S
O2063      H2092   0.990       .  S
O2064      C2065   1.278       .  A
C2065      C2109   1.497       .  S
O2066      H2085   0.990       .  S
O2066      H2089   0.991       .  S
O2067      H2081   0.990       .  S
O2068      C2072   1.283       .  A
O2069      C2072   1.280       .  A
O2071      H2084   0.990       .  S
C2072      C2160   1.466       .  S
C2095      C2097   1.569       .  S
C2095      C2313   1.574       .  S
C2096      C2100   1.574       .  S
C2096      C2112   1.579       .  S
C2096      C2124   1.565       .  S
C2096      C2184   1.588       .  S
C2097      C2098   1.414       .  A
C2097      C2102   1.433       .  A
C2098      C2099   1.402       .  A
C2098      H2103   1.084       .  S
C2099      C2100   1.426       .  A
C2099      C2106   1.443       .  S
C2100      C2101   1.411       .  A
C2101      C2102   1.395       .  A
C2101      H2104   1.085       .  S
C2102      C2105   1.444       .  S
C2105      N2107   1.158       .  T
C2106      N2108   1.158       .  T
C2109      C2110   1.407       .  A
C2109      C2114   1.416       .  A
C2110      C2111   1.408       .  A
C2110      H2115   1.084       .  S
C2111      C2112   1.430       .  A
C2111      C2118   1.444       .  S
C2112      C2113   1.410       .  A
C2113      C2114   1.390       .  A
C2113      H2116   1.071       .  S
C2114      C2117   1.447       .  S
C2117      N2119   1.157       .  T
C2118      N2120   1.157       .  T
C2121      C2122   1.403       .  A
C2121      C2126   1.421       .  A
C2122      C2123   1.406       .  A
C2122      H2127   1.085       .  S
C2123      C2124   1.432       .  A
C2123      C2130   1.444       .  S
C2124      C2125   1.409       .  A
C2125      C2126   1.395       .  A
C2125      H2128   1.078       .  S
C2126      C2129   1.446       .  S
C2129      N2131   1.157       .  T
C2130      N2132   1.157       .  T
C2133      C2134   1.391       .  A
C2133      C2138   1.402   1_556  A
C2134      C2135   1.396       .  A
C2134      H2139   1.086       .  S
C2135      C2136   1.433   1_556  A
C2135      C2142   1.443       .  S
C2136      C2137   1.419       .  A
C2137      C2138   1.392       .  A
C2138      C2141   1.446       .  S
C2141      N2143   1.157       .  T
C2142      N2144   1.158       .  T
C2145      C2146   1.394       .  A
C2145      C2150   1.400       .  A
C2146      C2147   1.398   1_556  A
C2146      H2151   1.086       .  S
C2147      C2148   1.432       .  A
C2147      C2154   1.442       .  S
C2148      C2149   1.423       .  A
C2149      C2150   1.400   1_554  A
C2150      C2153   1.443       .  S
C2153      N2155   1.157       .  T
C2154      N2156   1.157       .  T
C2157      C2158   1.426       .  A
C2157      C2162   1.432       .  A
C2158      C2159   1.399       .  A
C2158      H2163   1.079       .  S
C2159      C2160   1.398       .  A
C2159      C2166   1.445       .  S
C2160      C2161   1.393       .  A
C2161      C2162   1.399       .  A
C2161      H2164   1.086       .  S
C2162      C2165   1.442       .  S
C2166      N2168   1.157       .  T
C2169      C2170   1.412       .  A
C2169      C2174   1.430       .  A
C2170      C2171   1.397       .  A
C2170      H2175   1.082       .  S
C2171      C2172   1.420       .  A
C2171      C2178   1.443       .  S
C2172      C2173   1.416       .  A
C2173      C2174   1.406       .  A
C2173      H2176   1.083       .  S
C2174      C2177   1.444       .  S
C2177      N2179   1.158       .  T
C2178      N2180   1.157       .  T
C2181      C2182   1.406       .  A
C2181      C2186   1.415       .  A
C2182      C2183   1.406       .  A
C2182      H2187   1.085       .  S
C2183      C2184   1.430       .  A
C2183      C2190   1.443       .  S
C2184      C2185   1.420       .  A
C2185      C2186   1.400       .  A
C2185      H2188   1.077       .  S
C2186      C2189   1.444       .  S
C2189      N2191   1.157       .  T
C2190      N2192   1.157       .  T
C2193      C2194   1.419       .  A
C2194      C2195   1.398       .  A
C2194      H2199   1.084       .  S
C2195      C2196   1.407       .  A
C2195      C2202   1.444       .  S
C2196      C2197   1.397       .  A
C2197      H2200   1.086       .  S
C2198      C2201   1.442       .  S
C2201      N2203   1.158       .  T
C2202      N2204   1.157       .  T
C2206      C2207   1.409       .  A
C2207      C2208   1.412       .  A
C2207      C2214   1.442       .  S
C2208      C2209   1.408       .  A
C2209      C2210   1.401       .  A
C2209      H2212   1.085   1_565  S
C2210      C2213   1.443       .  S
C2213      N2215   1.158       .  T
C2214      N2216   1.157       .  T
C2217      C2218   1.408       .  A
C2217      C2222   1.413       .  A
C2218      C2219   1.413       .  A
C2218      H2223   1.084       .  S
C2219      C2220   1.429       .  A
C2219      C2226   1.442       .  S
C2220      C2221   1.419       .  A
C2221      C2222   1.399       .  A
C2221      H2224   1.078       .  S
C2225      N2227   1.157       .  T
C2226      N2228   1.157       .  T
C2229      C2230   1.416       .  A
C2229      C2234   1.432       .  A
C2230      C2231   1.396       .  A
C2230      H2235   1.077       .  S
C2231      C2232   1.405       .  A
C2231      C2238   1.445       .  S
C2232      C2233   1.404       .  A
C2233      C2234   1.416       .  A
C2233      H2236   1.085       .  S
C2234      C2237   1.442       .  S
C2237      N2239   1.158       .  T
C2238      N2240   1.157       .  T
C2241      C2242   1.428       .  A
C2241      C2246   1.423       .  A
C2242      C2243   1.404       .  A
C2242      H2247   1.080       .  S
C2243      C2244   1.399   1_655  A
C2244      C2245   1.407   1_455  A
C2245      C2246   1.402       .  A
C2245      H2248   1.085       .  S
C2246      C2249   1.445       .  S
C2249      N2251   1.157       .  T
C2250      N2252   1.157   1_655  T
C2253      C2254   1.418       .  A
C2253      C2258   1.428       .  A
C2254      C2255   1.403       .  A
C2254      H2259   1.084       .  S
C2255      C2256   1.425       .  A
C2255      C2262   1.442       .  S
C2256      C2257   1.417       .  A
C2257      C2258   1.407       .  A
C2257      H2260   1.085       .  S
C2258      C2261   1.442       .  S
C2261      N2263   1.158       .  T
C2265      C2266   1.392       .  A
C2265      C2270   1.403       .  A
C2266      H2271   1.087       .  S
C2267      C2268   1.435       .  A
C2267      C2274   1.439       .  S
C2269      C2270   1.406       .  A
C2269      H2272   1.079       .  S
C2270      C2273   1.443       .  S
C2273      N2275   1.157       .  T
C2274      N2276   1.157       .  T
C2277      C2278   1.416       .  A
C2277      C2282   1.440       .  A
C2278      C2279   1.405       .  A
C2278      H2283   1.085       .  S
C2279      C2280   1.413       .  A
C2279      C2286   1.441       .  S
C2280      C2281   1.395       .  A
C2281      C2282   1.402       .  A
C2281      H2284   1.086       .  S
C2282      C2285   1.440       .  S
C2285      N2287   1.156       .  T
C2286      N2288   1.157       .  T
C2289      C2290   1.399   1_556  A
C2289      C2294   1.410       .  A
C2290      C2291   1.399   1_554  A
C2291      C2298   1.442       .  S
C2293      C2294   1.401       .  A
C2294      C2297   1.443       .  S
C2297      N2299   1.157       .  T
C2301      C2302   1.393       .  A
C2301      C2306   1.403       .  A
C2302      C2303   1.407       .  A
C2302      H2307   1.086       .  S
C2303      C2304   1.441       .  A
C2303      C2310   1.441       .  S
C2304      C2305   1.421       .  A
C2305      C2306   1.399       .  A
C2305      H2308   1.084       .  S
C2309      N2311   1.157       .  T
C2310      N2312   1.158       .  T
C2313      C2314   1.417       .  A
C2313      C2318   1.434       .  A
C2314      C2315   1.391       .  A
C2315      C2316   1.404       .  A
C2315      C2322   1.445   1_455  S
C2316      C2317   1.396       .  A
C2317      C2318   1.408       .  A
C2317      H2320   1.086       .  S
C2318      C2321   1.436       .  S
C2321      N2323   1.155       .  T
C2325      C2326   1.420       .  A
C2325      C2330   1.433       .  A
C2326      C2327   1.398       .  A
C2327      C2328   1.406       .  A
C2327      C2334   1.446       .  S
C2328      C2329   1.394       .  A
C2329      C2330   1.393       .  A
C2329      H2332   1.086       .  S
C2330      C2333   1.442       .  S
C2333      N2335   1.157       .  T
C2337      C2338   1.407       .  A
C2337      C2342   1.433       .  A
C2338      C2339   1.384       .  A
C2338      H2343   1.074       .  S
C2339      C2340   1.420       .  A
C2339      C2346   1.447       .  S
C2340      C2341   1.404       .  A
C2341      C2342   1.414       .  A
C2341      H2344   1.084       .  S
C2342      C2345   1.443       .  S
C2345      N2347   1.157       .  T
C2346      N2348   1.157       .  T
C2349      C2350   1.412       .  A
C2349      C2354   1.431       .  A
C2350      C2351   1.405       .  A
C2350      H2355   1.085       .  S
C2351      C2352   1.433       .  A
C2351      C2358   1.443       .  S
C2352      C2353   1.411       .  A
C2353      C2354   1.393       .  A
C2353      H2356   1.086       .  S
C2354      C2357   1.445       .  S
C2357      N2359   1.158       .  T
C2358      N2360   1.158       .  T
C2361      C2362   1.399       .  A
C2361      C2366   1.411       .  A
C2362      C2363   1.409       .  A
C2362      H2367   1.085       .  S
C2363      C2364   1.434       .  A
C2363      C2370   1.441       .  S
C2364      C2365   1.421       .  A
C2365      C2366   1.407       .  A
C2365      H2368   1.079       .  S
C2366      C2369   1.444       .  S
C2369      N2371   1.157       .  T
C2373      C2374   1.398       .  A
C2373      C2378   1.413       .  A
C2374      C2375   1.393       .  A
C2375      C2376   1.437       .  A
C2375      C2382   1.441   1_556  S
C2376      C2377   1.427       .  A
C2377      C2378   1.417       .  A
C2377      H2380   1.084       .  S
C2378      C2381   1.443       .  S
C2381      N2383   1.158       .  T
C2385      C2386   1.421       .  A
C2385      C2390   1.441       .  A
C2386      C2387   1.404       .  A
C2386      H2391   1.075       .  S
C2387      C2388   1.402       .  A
C2387      C2394   1.442       .  S
C2388      C2389   1.394       .  A
C2389      C2390   1.405       .  A
C2389      H2392   1.086       .  S
C2390      C2393   1.443   1_556  S
C2394      N2396   1.157       .  T
C2397      C2398   1.424       .  A
C2397      C2402   1.436       .  A
C2398      C2399   1.401       .  A
C2398      H2403   1.073       .  S
C2399      C2400   1.404       .  A
C2400      C2401   1.402       .  A
C2401      C2402   1.401       .  A
C2401      H2404   1.086       .  S
C2402      C2405   1.447       .  S
C2405      N2407   1.157       .  T
C2406      N2408   1.157       .  T
C2409      C2410   1.395       .  A
C2409      C2414   1.406       .  A
C2410      C2411   1.394       .  A
C2410      H2415   1.086       .  S
C2411      C2412   1.441       .  A
C2411      C2418   1.445       .  S
C2412      C2413   1.420       .  A
C2413      C2414   1.401       .  A
C2413      H2416   1.071       .  S
C2414      C2417   1.445       .  S
C2417      N2419   1.158       .  T
C2418      N2420   1.158       .  T
C2421      C2422   1.401       .  A
C2421      C2426   1.402       .  A
C2422      C2423   1.404       .  A
C2422      H2427   1.086       .  S
C2423      C2424   1.430       .  A
C2423      C2430   1.444       .  S
C2424      C2425   1.424       .  A
C2425      C2426   1.405       .  A
C2425      H2428   1.079       .  S
C2426      C2429   1.444       .  S
C2429      N2431   1.157       .  T
C2430      N2432   1.158       .  T
