geometry optimzed in LAMMPS
_audit_creation_date              2020-11-30 
_audit_creation_method            'lammps2cif' 
_symmetry_space_group_name_H-M    'P1' 
_symmetry_Int_Tables_number       1 
_symmetry_cell_setting            triclinic 
loop_ 
_symmetry_equiv_pos_as_xyz 
  x,y,z 
_cell_length_a                    50.93754016 
_cell_length_b                    40.83504196917128 
_cell_length_c                    31.72025857258812 
_cell_angle_alpha                 86.41818201806602 
_cell_angle_beta                  82.23336930911925 
_cell_angle_gamma                 89.98962734880864 
loop_ 
_atom_site_label 
_atom_site_type_symbol 
_atom_site_fract_x 
_atom_site_fract_y 
_atom_site_fract_z 
_atom_site_charge 
O1          O  0.01932540  0.02918664  0.04639879    -0.74700
O2          O  0.46740715  0.46171696  0.04351860    -0.74700
O3          O  0.02079776  0.46333488  0.04378733    -0.74800
O4          O  0.46613193  0.02776329  0.04638069    -0.74800
O5          O  0.47227893  0.03310006  0.97539693    -0.74700
O6          O  0.02652360  0.46835215  0.97281517    -0.74700
O7          O  0.47336174  0.46713712  0.97269850    -0.74700
O8          O  0.02508421  0.03425288  0.97537364    -0.74800
Ni9        Ni  0.49321090  0.49532920  0.04750262     1.25400
Ni10       Ni  0.99946512  0.00086019  0.97154240     1.25400
C11         C  0.03066371  0.04297685  0.01120820     0.87500
C12         C  0.46134183  0.45370597  0.00758264     0.87400
C13         C  0.03298992  0.45558937  0.00781921     0.87500
C14         C  0.46022369  0.04112400  0.01129039     0.87600
O15         O  0.02499308  0.03070386  0.53721387    -0.74700
O16         O  0.47355410  0.46212875  0.53828472    -0.74700
O17         O  0.02672047  0.46437355  0.53696494    -0.74800
O18         O  0.47190693  0.02841216  0.53874513    -0.74800
O19         O  0.47658290  0.03141370  0.46774433    -0.74700
O20         O  0.03247095  0.46806770  0.46597922    -0.74700
O21         O  0.47916263  0.46496905  0.46730089    -0.74700
O22         O  0.02984919  0.03448552  0.46636882    -0.74800
Ni23       Ni  0.49913029  0.49625377  0.54004015     1.25400
Ni24       Ni  0.00467469  0.00000924  0.46433220     1.25400
C25         C  0.03604023  0.04393848  0.50157030     0.87500
C26         C  0.46781657  0.45221590  0.50307169     0.87400
C27         C  0.03879747  0.45578821  0.50137489     0.87500
C28         C  0.46519876  0.04051737  0.50360371     0.87600
O29         O  0.20648493  0.31885634  0.02525900    -0.81100
O30         O  0.30127181  0.21748084  0.00824230    -0.65800
O31         O  0.24762018  0.27950130  0.98808775    -1.12400
C32         C  0.19029075  0.19011168  0.99436740     1.05700
O33         O  0.28477824  0.17395481  0.98166862    -0.79000
O34         O  0.25622825  0.20661600  0.92659927    -0.66600
Ni35       Ni  0.24442452  0.31741169  0.02100862     1.34900
C36         C  0.24133276  0.22880838  0.91338649     0.84500
O37         O  0.30225492  0.28079096  0.98607156    -0.79600
O38         O  0.28211607  0.32280135  0.01856111    -0.89900
C39         C  0.30342908  0.18853094  0.99595638     0.84100
O40         O  0.24146397  0.29271798  0.07450813    -0.68100
O41         O  0.21060491  0.17887951  0.97223768    -0.87300
C42         C  0.25650138  0.27017094  0.08649491     0.84900
C43         C  0.30255557  0.30934032  0.99968470     1.06500
H44         H  0.24286716  0.21069753  0.04140851     0.38300
O45         O  0.24573066  0.21778592  0.01151641    -1.10000
O46         O  0.22293250  0.24171242  0.93827478    -0.66700
Ni47       Ni  0.21912856  0.24851021  0.99904966     1.26300
O48         O  0.27241843  0.25514143  0.05984715    -0.66900
O49         O  0.19128726  0.21692348  0.01203863    -0.79200
C50         C  0.18995923  0.30729273  0.00336479     0.84300
O51         O  0.19339539  0.28005574  0.98664920    -0.66400
Ni52       Ni  0.24788007  0.18002607  0.97813793     1.27400
Ni53       Ni  0.27456868  0.24888896  0.99917228     1.26100
H54         H  0.25047415  0.28694153  0.95828405     0.38800
O55         O  0.21047532  0.31032088  0.53283893    -0.81100
O56         O  0.30221589  0.21354765  0.52632265    -0.65800
O57         O  0.25440814  0.27859897  0.49267478    -1.12400
C58         C  0.19833484  0.18684711  0.48663088     1.05700
O59         O  0.29542949  0.18421283  0.47223587    -0.79000
O60         O  0.25840719  0.20047687  0.42127805    -0.66600
Ni61       Ni  0.24812081  0.31730585  0.52262294     1.34900
C62         C  0.24767128  0.22624842  0.40730405     0.84500
O63         O  0.30650900  0.27890739  0.51207402    -0.79600
O64         O  0.28521612  0.32715016  0.51407399    -0.89900
C65         C  0.30935338  0.19152806  0.50082074     0.84100
O66         O  0.25037972  0.29975333  0.57924784    -0.68100
O67         O  0.21990489  0.17090720  0.47974808    -0.87300
C68         C  0.25791271  0.27242616  0.59451256     0.84900
C69         C  0.30630604  0.31018793  0.51277792     1.06500
H70         H  0.24375905  0.20875835  0.53797664     0.38300
O71         O  0.25026342  0.21701792  0.50926134    -1.10000
O72         O  0.23462093  0.24590221  0.43170247    -0.66700
Ni73       Ni  0.22557661  0.24874020  0.49261058     1.26300
O74         O  0.26778575  0.25001433  0.57127052    -0.66900
O75         O  0.19755627  0.21732724  0.49349202    -0.79200
C76         C  0.19604332  0.30553464  0.50410261     0.84300
O77         O  0.20162618  0.28271826  0.47907540    -0.66400
Ni78       Ni  0.25729898  0.17952073  0.47693582     1.27400
Ni79       Ni  0.27867113  0.24719448  0.51096189     1.26100
H80         H  0.26098758  0.28579342  0.46357509     0.38800
C81         C  0.24457930  0.23884705  0.86727119    -0.20100
C82         C  0.26984832  0.24079991  0.84249267     0.36100
C83         C  0.27179849  0.24801632  0.79819813    -0.26100
C84         C  0.24906331  0.25358149  0.77844641     0.02500
C85         C  0.22394946  0.25296274  0.80329110     0.27300
C86         C  0.22194269  0.24565495  0.84751897    -0.25200
N87         N  0.29337745  0.23563478  0.86240846    -0.82600
H88         H  0.29105896  0.24894182  0.77886974     0.13100
C89         C  0.25166288  0.25870751  0.73143418     0.02500
N90         N  0.20058551  0.25909270  0.78327982    -0.81200
H91         H  0.20256497  0.24437979  0.86648120     0.18000
C92         C  0.24820170  0.23186617  0.70722897    -0.26000
C93         C  0.25009456  0.23560361  0.66250864     0.36000
C94         C  0.25549650  0.26697846  0.64165081    -0.20000
C95         C  0.25891831  0.29383154  0.66619088    -0.25300
C96         C  0.25722260  0.28995064  0.71086187     0.27400
H97         H  0.24387622  0.20792946  0.72342187     0.13100
N98         N  0.24613793  0.20778669  0.63838969    -0.82600
H99         H  0.26331630  0.31788195  0.65038077     0.18000
N100        N  0.26139306  0.31746014  0.73539879    -0.81200
H101        H  0.24267269  0.18652592  0.65853141     0.33600
H102        H  0.22893323  0.21192840  0.62428505     0.38100
H103        H  0.26568387  0.33865090  0.71538972     0.33600
H104        H  0.24359747  0.32180170  0.75473881     0.30300
H105        H  0.18362301  0.25728366  0.80591633     0.33600
H106        H  0.20164346  0.28337121  0.77055206     0.30300
H107        H  0.29448312  0.25438139  0.88312354     0.38100
H108        H  0.31029898  0.23793162  0.83972761     0.33600
C109        C  0.25545985  0.26171791  0.13341469    -0.20100
C110        C  0.27434775  0.24123130  0.15082237     0.36100
C111        C  0.27279377  0.23569384  0.19544519    -0.26100
C112        C  0.25251877  0.24931675  0.22332912     0.02500
C113        C  0.23335494  0.26905106  0.20610245     0.27300
C114        C  0.23517755  0.27526006  0.16166763    -0.25200
N115        N  0.29532701  0.22650092  0.12353526    -0.82600
H116        H  0.28762128  0.22070566  0.20865127     0.13100
C117        C  0.25174600  0.24309686  0.27046392     0.02500
N118        N  0.21194394  0.28255547  0.23382980    -0.81200
H119        H  0.22039266  0.29069522  0.14909988     0.18000
C120        C  0.25105730  0.26979142  0.29651090    -0.26000
C121        C  0.25002386  0.26507728  0.34109037     0.36000
C122        C  0.24984959  0.23287756  0.36023572    -0.20000
C123        C  0.25107312  0.20619073  0.33405032    -0.25300
C124        C  0.25171617  0.21091183  0.28957141     0.27400
H125        H  0.25154393  0.29451334  0.28187243     0.13100
N126        N  0.24955716  0.29288930  0.36680733    -0.82600
H127        H  0.25074120  0.18141004  0.34849943     0.18000
N128        N  0.25180199  0.18312242  0.26385766    -0.81200
H129        H  0.24943819  0.31478488  0.34790114     0.33600
H130        H  0.26720983  0.29284306  0.38023058     0.38100
H131        H  0.25185929  0.16119440  0.28272143     0.33600
H132        H  0.23408279  0.18339486  0.25061204     0.30300
H133        H  0.19963107  0.29673380  0.21626087     0.33600
H134        H  0.20039581  0.26295486  0.24897478     0.30300
H135        H  0.28672959  0.20860222  0.10745376     0.38100
H136        H  0.30838728  0.21406373  0.14154710     0.33600
C137        C  0.06086317  0.43212274  0.50100388    -0.20100
C138        C  0.06163409  0.40716774  0.53383951     0.36100
C139        C  0.08344839  0.38604480  0.53228351    -0.26100
C140        C  0.10474365  0.38974695  0.49936151     0.02500
C141        C  0.10398058  0.41443840  0.46648074     0.27300
C142        C  0.08185602  0.43504104  0.46729991    -0.25200
N143        N  0.04011239  0.40275062  0.56808664    -0.82600
H144        H  0.08406839  0.36679265  0.55724065     0.13100
C145        C  0.12800733  0.36807544  0.50050949     0.02500
N146        N  0.12591836  0.41892554  0.43295786    -0.81200
H147        H  0.08141301  0.45419909  0.44218409     0.18000
C148        C  0.13557047  0.34798311  0.46673547    -0.26000
C149        C  0.15763220  0.32722403  0.46676260     0.36000
C150        C  0.17219146  0.32626772  0.50182749    -0.20000
C151        C  0.16433363  0.34645790  0.53562091    -0.25300
C152        C  0.14256051  0.36737670  0.53525033     0.27400
H153        H  0.12421432  0.34862762  0.44017106     0.13100
N154        N  0.16528432  0.30750608  0.43120723    -0.82600
H155        H  0.17529221  0.34612587  0.56262399     0.18000
N156        N  0.13525970  0.38811502  0.56990967    -0.81200
H157        H  0.15195973  0.31040740  0.40892326     0.33600
H158        H  0.18356726  0.31641774  0.41580357     0.38100
H159        H  0.14784183  0.38443416  0.59320367     0.33600
H160        H  0.13800373  0.41246255  0.55781457     0.30300
H161        H  0.12219523  0.43807895  0.41116810     0.33600
H162        H  0.14234720  0.42611365  0.44676351     0.30300
H163        H  0.04113992  0.42194907  0.58811192     0.38100
H164        H  0.04259774  0.38124407  0.58676359     0.33600
C165        C  0.44719861  0.42649275  0.50342589    -0.20100
C166        C  0.43965587  0.40461468  0.53945684     0.36100
C167        C  0.41845165  0.38262880  0.53919295    -0.26100
C168        C  0.40478992  0.38204243  0.50381212     0.02500
C169        C  0.41250898  0.40325600  0.46761444     0.27300
C170        C  0.43383869  0.42500636  0.46756356    -0.25200
N171        N  0.45324345  0.40500860  0.57631490    -0.82600
H172        H  0.41203452  0.36647426  0.56710373     0.13100
C173        C  0.38023171  0.36240655  0.50721083     0.02500
N174        N  0.39775912  0.40374958  0.43199256    -0.81200
H175        H  0.43931621  0.44181494  0.43997774     0.18000
C176        C  0.35659435  0.37684496  0.52409309    -0.26000
C177        C  0.33239071  0.36000724  0.52733015     0.36000
C178        C  0.33176012  0.32808596  0.51218489    -0.20000
C179        C  0.35574805  0.31336195  0.49616242    -0.25300
C180        C  0.38005092  0.33026641  0.49360640     0.27400
H181        H  0.35712009  0.40144679  0.53499426     0.13100
N182        N  0.30858681  0.37515776  0.54649858    -0.82600
H183        H  0.35552400  0.28883273  0.48501167     0.18000
N184        N  0.40448572  0.31491154  0.47770181    -0.81200
H185        H  0.31253286  0.39879082  0.55507814     0.33600
H186        H  0.30186928  0.36140548  0.57482540     0.38100
H187        H  0.40093164  0.29103628  0.46959597     0.33600
H188        H  0.41245776  0.32799304  0.44951959     0.30300
H189        H  0.40550661  0.42145880  0.40835765     0.33600
H190        H  0.40022414  0.38106903  0.41850290     0.30300
H191        H  0.47270792  0.39750146  0.56726588     0.38100
H192        H  0.44483690  0.38788977  0.60022658     0.33600
C193        C  0.33471866  0.17451345  0.50290622    -0.20100
C194        C  0.35308192  0.17193651  0.46586029     0.36100
C195        C  0.37526246  0.15170668  0.46740259    -0.26100
C196        C  0.37921646  0.13356881  0.50506960     0.02500
C197        C  0.36141119  0.13735811  0.54269331     0.27300
C198        C  0.33951172  0.15824139  0.54131379    -0.25200
N199        N  0.34896174  0.18972236  0.42676629    -0.82600
H200        H  0.38931188  0.14955928  0.43886354     0.13100
C201        C  0.40154077  0.10995682  0.50410855     0.02500
N202        N  0.36506903  0.11910204  0.58168731    -0.81200
H203        H  0.32533928  0.16040534  0.56971366     0.18000
C204        C  0.41977921  0.11188720  0.53331491    -0.26000
C205        C  0.44059538  0.08933869  0.53421633     0.36000
C206        C  0.44368372  0.06489191  0.50431242    -0.20000
C207        C  0.42592047  0.06357875  0.47429419    -0.25300
C208        C  0.40463187  0.08544441  0.47431187     0.27400
H209        H  0.41767485  0.13103227  0.55566171     0.13100
N210        N  0.45903549  0.09195441  0.56442712    -0.82600
H211        H  0.42822615  0.04476406  0.45146757     0.18000
N212        N  0.38587928  0.08249039  0.44466632    -0.81200
H213        H  0.45528868  0.11297457  0.58140821     0.33600
H214        H  0.45552454  0.07209805  0.58692337     0.38100
H215        H  0.39108021  0.06337205  0.42479250     0.33600
H216        H  0.36755511  0.07608959  0.46230137     0.30300
H217        H  0.35031556  0.12476948  0.60633392     0.33600
H218        H  0.36277704  0.09420889  0.57696233     0.30300
H219        H  0.35005405  0.21474973  0.43164199     0.38100
H220        H  0.36419746  0.18503410  0.40238471     0.33600
C221        C  0.05671032  0.06992621  0.50039548    -0.20100
C222        C  0.06562959  0.08075953  0.53772214     0.36100
C223        C  0.08683330  0.10329196  0.53381469    -0.26100
C224        C  0.09933353  0.11525711  0.49372084     0.02500
C225        C  0.08956173  0.10598015  0.45669716     0.27300
C226        C  0.06846105  0.08348110  0.46040349    -0.25200
N227        N  0.05369798  0.06854895  0.57941774    -0.82600
H228        H  0.09446469  0.11040684  0.56221089     0.13100
C229        C  0.12409149  0.13495703  0.49076512     0.02500
N230        N  0.10146426  0.11905962  0.41538226    -0.81200
H231        H  0.06156206  0.07604942  0.43158374     0.18000
C232        C  0.14706693  0.12355625  0.46692565    -0.26000
C233        C  0.17139664  0.14007166  0.46461979     0.36000
C234        C  0.17291027  0.16882123  0.48704904    -0.20000
C235        C  0.14967841  0.18055910  0.51031577    -0.25300
C236        C  0.12530854  0.16389644  0.51244954     0.27400
H237        H  0.14612680  0.10110419  0.45066397     0.13100
N238        N  0.19432655  0.12788809  0.43892947    -0.82600
H239        H  0.15057363  0.20259973  0.52740830     0.18000
N240        N  0.10182524  0.17618985  0.53651910    -0.81200
H241        H  0.18894701  0.10937327  0.42034560     0.33600
H242        H  0.20637897  0.11663232  0.45967337     0.38100
H243        H  0.10609211  0.19762990  0.55074080     0.33600
H244        H  0.08852789  0.18265386  0.51507663     0.30300
H245        H  0.09214067  0.10957096  0.39132031     0.33600
H246        H  0.09824146  0.14436539  0.41388012     0.30300
H247        H  0.05940548  0.04409362  0.58356470     0.38100
H248        H  0.06124438  0.08096561  0.60307636     0.33600
C249        C  0.16626945  0.32704886  0.99769174    -0.20100
C250        C  0.14112261  0.31298968  0.99579156     0.36100
C251        C  0.11914419  0.33372214  0.99434827    -0.26100
C252        C  0.12200833  0.36785008  0.99475762     0.02500
C253        C  0.14720592  0.38187303  0.99466818     0.27300
C254        C  0.16906117  0.36134915  0.99609693    -0.25200
N255        N  0.13766328  0.27795545  0.99783796    -0.82600
H256        H  0.09958870  0.32327469  0.99434912     0.13100
C257        C  0.09836176  0.38879656  0.99834028     0.02500
N258        N  0.15031411  0.41691334  0.99412072    -0.81200
H259        H  0.18841299  0.37223437  0.99660595     0.18000
C260        C  0.09141472  0.40468722  0.03607103    -0.26000
C261        C  0.07016504  0.42661831  0.04021400     0.36000
C262        C  0.05509583  0.43195534  0.00609277    -0.20000
C263        C  0.06201061  0.41554188  0.96851222    -0.25300
C264        C  0.08371600  0.39429701  0.96412129     0.27400
H265        H  0.10312102  0.40052074  0.06198798     0.13100
N266        N  0.06449014  0.44413376  0.07830337    -0.82600
H267        H  0.05066878  0.41964730  0.94215864     0.18000
N268        N  0.09129526  0.37883333  0.92486404    -0.81200
H269        H  0.07722718  0.43687556  0.10033551     0.33600
H270        H  0.06853917  0.46897115  0.06989111     0.38100
H271        H  0.07840311  0.38544535  0.90282325     0.33600
H272        H  0.10999676  0.38799291  0.91177361     0.30300
H273        H  0.17013525  0.42328109  0.99473265     0.33600
H274        H  0.14524288  0.42686461  0.96516105     0.30300
H275        H  0.14705038  0.26953406  0.96922537     0.38100
H276        H  0.11761798  0.27180448  0.99932499     0.33600
C277        C  0.43970766  0.42945484  0.00554619    -0.20100
C278        C  0.42571642  0.41268955  0.04232764     0.36100
C279        C  0.40495839  0.39100270  0.03780941    -0.26100
C280        C  0.39745162  0.38617556  0.99773708     0.02500
C281        C  0.41129849  0.40259794  0.96112678     0.27300
C282        C  0.43230042  0.42384315  0.96534907    -0.25200
N283        N  0.43222303  0.41784342  0.08414031    -0.82600
H284        H  0.39394882  0.37853964  0.06587744     0.13100
C285        C  0.37407344  0.36524639  0.99493196     0.02500
N286        N  0.40381960  0.39776884  0.91981991    -0.81200
H287        H  0.44266800  0.43644373  0.93687189     0.18000
C288        C  0.35181000  0.37959984  0.97995594    -0.26000
C289        C  0.32857990  0.36125250  0.97951622     0.36000
C290        C  0.32763147  0.32796800  0.99460444    -0.20400
C291        C  0.35020211  0.31323792  0.00799164    -0.25300
C292        C  0.37347803  0.33164436  0.00841978     0.27400
H293        H  0.35241723  0.40538963  0.96943292     0.13100
N294        N  0.30586236  0.37626606  0.96410820    -0.82600
H295        H  0.34932555  0.28768849  0.01959454     0.18000
N296        N  0.39638891  0.31656169  0.02299267    -0.81200
H297        H  0.30978429  0.40091577  0.95434198     0.33600
H298        H  0.30248343  0.36450906  0.93695884     0.38100
H299        H  0.39263854  0.29176358  0.03205675     0.33600
H300        H  0.41153379  0.31737229  0.99716755     0.30300
H301        H  0.41582168  0.41188029  0.89610819     0.33600
H302        H  0.40731484  0.37320446  0.91352767     0.30300
H303        H  0.42627867  0.44158208  0.09139520     0.38100
H304        H  0.42119232  0.40202577  0.10708730     0.33600
C305        C  0.32833521  0.17003991  0.99836729    -0.20100
C306        C  0.35315442  0.18557805  0.99865182     0.36100
C307        C  0.37582687  0.16618607  0.00134113    -0.26100
C308        C  0.37418657  0.13183277  0.00270855     0.02500
C309        C  0.34974083  0.11644888  0.00054473     0.27300
C310        C  0.32709015  0.13559899  0.99906510    -0.25200
N311        N  0.35538249  0.22076447  0.99557087    -0.82600
H312        H  0.39483315  0.17781287  0.00234824     0.13100
C313        C  0.39792276  0.11163870  0.00677799     0.02500
N314        N  0.34810992  0.08133313  0.99959096    -0.81200
H315        H  0.30829150  0.12337851  0.99837801     0.18000
C316        C  0.39766650  0.08958123  0.04252906    -0.26000
C317        C  0.41790745  0.06654801  0.04523024     0.36000
C318        C  0.43916515  0.06609593  0.01165165    -0.20000
C319        C  0.43990681  0.08921221  0.97671106    -0.25300
C320        C  0.41941406  0.11189064  0.97381917     0.27400
H321        H  0.38099308  0.08956317  0.06768744     0.13100
N322        N  0.41635630  0.04297414  0.08112923    -0.82600
H323        H  0.45631478  0.08919651  0.95111732     0.18000
N324        N  0.41996611  0.13450072  0.93709406    -0.81200
H325        H  0.39968843  0.04713974  0.10318453     0.33600
H326        H  0.41365409  0.01982065  0.06995048     0.38100
H327        H  0.43727692  0.13162152  0.91588436     0.33600
H328        H  0.40416599  0.12848413  0.92105857     0.30300
H329        H  0.32864694  0.07381613  0.99815800     0.33600
H330        H  0.35937653  0.07473586  0.97138611     0.30300
H331        H  0.35079664  0.22904958  0.96558355     0.38100
H332        H  0.37493221  0.22811977  0.99663477     0.33600
C333        C  0.16487030  0.17147311  0.99813106    -0.20100
C334        C  0.14295555  0.17757556  0.02921146     0.36100
C335        C  0.11975208  0.15848480  0.03150709    -0.26100
C336        C  0.11820457  0.13310202  0.00424347     0.02500
C337        C  0.13997588  0.12660444  0.97377155     0.27300
C338        C  0.16293600  0.14600984  0.97072331    -0.25200
N339        N  0.14441449  0.20245325  0.05896428    -0.82600
H340        H  0.10293404  0.16294316  0.05519167     0.13100
C341        C  0.09410282  0.11238104  0.00884445     0.02500
N342        N  0.13875780  0.09997820  0.94645689    -0.81200
H343        H  0.17953444  0.14086442  0.94699493     0.18000
C344        C  0.07750867  0.11489794  0.97704411    -0.26000
C345        C  0.05576954  0.09355183  0.97832496     0.36000
C346        C  0.05103005  0.06871425  0.01163799    -0.20000
C347        C  0.06698109  0.06730723  0.04451002    -0.25300
C348        C  0.08858897  0.08886983  0.04332364     0.27400
H349        H  0.08176300  0.13336103  0.95093675     0.13100
N350        N  0.03852189  0.09700681  0.94599996    -0.82600
H351        H  0.06328468  0.04845250  0.07023482     0.18000
N352        N  0.10541537  0.08644906  0.07628583    -0.81200
H353        H  0.04483604  0.11639787  0.92385665     0.33600
H354        H  0.01979549  0.10333731  0.96092108     0.38100
H355        H  0.09857399  0.06798473  0.09949052     0.33600
H356        H  0.12416873  0.07928210  0.06245322     0.30300
H357        H  0.15642419  0.09848251  0.92566009     0.33600
H358        H  0.13706561  0.07815867  0.96575357     0.30300
H359        H  0.15831976  0.19482307  0.07886536     0.38100
H360        H  0.12636213  0.20429586  0.07870278     0.33600
O361        O  0.01933947  0.52938415  0.04625388    -0.74700
O362        O  0.46731474  0.96165046  0.04344428    -0.74700
O363        O  0.02070903  0.96315600  0.04358671    -0.74800
O364        O  0.46617012  0.52785967  0.04610237    -0.74800
O365        O  0.47237273  0.53299225  0.97511424    -0.74700
O366        O  0.02639382  0.96840031  0.97263108    -0.74700
O367        O  0.47321836  0.96727782  0.97263457    -0.74700
O368        O  0.02516454  0.53423532  0.97521994    -0.74800
Ni369      Ni  0.49315294  0.99519462  0.04754208     1.25400
Ni370      Ni  0.99957856  0.50077980  0.97149762     1.25400
C371        C  0.03069318  0.54309045  0.01102385     0.87500
C372        C  0.46122094  0.95375422  0.00747685     0.87400
C373        C  0.03287981  0.95551492  0.00755689     0.87500
C374        C  0.46028331  0.54111577  0.01093872     0.87600
O375        O  0.02506055  0.53063509  0.53668842    -0.74700
O376        O  0.47361393  0.96215096  0.53842675    -0.74700
O377        O  0.02683044  0.96451909  0.53692311    -0.74800
O378        O  0.47196593  0.52843154  0.53819641    -0.74800
O379        O  0.47664573  0.53114684  0.46721510    -0.74700
O380        O  0.03245662  0.96840959  0.46596293    -0.74700
O381        O  0.47907646  0.96527941  0.46743916    -0.74700
O382        O  0.02989636  0.53417704  0.46584434    -0.74800
Ni383      Ni  0.49914293  0.99628442  0.54032529     1.25400
Ni384      Ni  0.00472688  0.49969259  0.46404061     1.25400
C385        C  0.03609130  0.54377053  0.50096176     0.87500
C386        C  0.46776051  0.95243472  0.50319048     0.87400
C387        C  0.03891788  0.95609532  0.50124841     0.87500
C388        C  0.46526400  0.54041670  0.50299891     0.87600
O389        O  0.20646941  0.81880487  0.02478433    -0.81100
O390        O  0.30126842  0.71747999  0.00768626    -0.65800
O391        O  0.24764330  0.77954424  0.98738438    -1.12400
C392        C  0.19027162  0.69024942  0.99389452     1.05700
O393        O  0.28475752  0.67396239  0.98112133    -0.79000
O394        O  0.25624214  0.70671999  0.92605035    -0.66600
Ni395      Ni  0.24443923  0.81758593  0.02006110     1.34900
C396        C  0.24132192  0.72888331  0.91283481     0.84500
O397        O  0.30229725  0.78077374  0.98543131    -0.79600
O398        O  0.28213666  0.82313314  0.01713389    -0.89900
C399        C  0.30341911  0.68852236  0.99540755     0.84100
O400        O  0.24174209  0.79318493  0.07374295    -0.68100
O401        O  0.21056943  0.67901901  0.97170842    -0.87300
C402        C  0.25665801  0.77051922  0.08577170     0.84900
C403        C  0.30259248  0.80945355  0.99864797     1.06500
H404        H  0.24286736  0.71078505  0.04084949     0.38300
O405        O  0.24572739  0.71786012  0.01095259    -1.10000
O406        O  0.22288682  0.74172679  0.93770937    -0.66700
Ni407      Ni  0.21913676  0.74860034  0.99845295     1.26300
O408        O  0.27242293  0.75524993  0.05918145    -0.66900
O409        O  0.19129074  0.71705445  0.01156397    -0.79200
C410        C  0.18996761  0.80735484  0.00275875     0.84300
O411        O  0.19342186  0.78015217  0.98597133    -0.66400
Ni412      Ni  0.24785721  0.68010250  0.97758070     1.27400
Ni413      Ni  0.27458246  0.74892180  0.99854909     1.26100
H414        H  0.25050061  0.78690593  0.95755413     0.38800
O415        O  0.21074022  0.81060120  0.53187031    -0.81100
O416        O  0.30218584  0.71323247  0.52556312    -0.65800
O417        O  0.25458423  0.77857915  0.49203277    -1.12400
C418        C  0.19827711  0.68694568  0.48600294     1.05700
O419        O  0.29537694  0.68410471  0.47132834    -0.79000
O420        O  0.25828144  0.70043618  0.42050066    -0.66600
Ni421      Ni  0.24842490  0.81726472  0.52214604     1.34900
C422        C  0.24763415  0.72629016  0.40657289     0.84500
O423        O  0.30673892  0.77849441  0.51121363    -0.79600
O424        O  0.28558567  0.82685046  0.51428691    -0.89900
C425        C  0.30927983  0.69124775  0.50000755     0.84100
O426        O  0.25031044  0.79944677  0.57872640    -0.68100
O427        O  0.21983554  0.67098543  0.47916680    -0.87300
C428        C  0.25799823  0.77218025  0.59391362     0.84900
C429        C  0.30660054  0.80970868  0.51262038     1.06500
H430        H  0.24374513  0.70874099  0.53729318     0.38300
O431        O  0.25025689  0.71698681  0.50857496    -1.10000
O432        O  0.23469576  0.74598687  0.43102794    -0.66700
Ni433      Ni  0.22565023  0.74881472  0.49191088     1.26300
O434        O  0.26800637  0.74987004  0.57060437    -0.66900
O435        O  0.19754114  0.71746263  0.49273643    -0.79200
C436        C  0.19634995  0.80588263  0.50305782     0.84300
O437        O  0.20180802  0.78289604  0.47825794    -0.66400
Ni438      Ni  0.25723255  0.67950057  0.47617990     1.27400
Ni439      Ni  0.27876050  0.74700494  0.51023410     1.26100
H440        H  0.26117451  0.78580371  0.46294790     0.38800
C441        C  0.24456587  0.73894132  0.86673779    -0.20100
C442        C  0.26986546  0.74144825  0.84212383     0.36100
C443        C  0.27185137  0.74860790  0.79781064    -0.26100
C444        C  0.24910902  0.75357013  0.77789235     0.02500
C445        C  0.22394451  0.75245624  0.80260095     0.27300
C446        C  0.22190828  0.74520573  0.84684284    -0.25200
N447        N  0.29338193  0.73689931  0.86223195    -0.82600
H448        H  0.29114709  0.74994346  0.77859905     0.13100
C449        C  0.25176812  0.75861195  0.73086036     0.02500
N450        N  0.20057003  0.75803889  0.78243910    -0.81200
H451        H  0.20250626  0.74353481  0.86570475     0.18000
C452        C  0.24857491  0.73166896  0.70668316    -0.26000
C453        C  0.25049983  0.73533348  0.66194881     0.36000
C454        C  0.25562775  0.76674259  0.64105420    -0.20000
C455        C  0.25881074  0.79368744  0.66556661    -0.25300
C456        C  0.25710154  0.78988011  0.71024048     0.27400
H457        H  0.24443531  0.70770806  0.72290862     0.13100
N458        N  0.24685655  0.70740391  0.63785784    -0.82600
H459        H  0.26302219  0.81776748  0.64973290     0.18000
N460        N  0.26101205  0.81749999  0.73473531    -0.81200
H461        H  0.24357668  0.68613357  0.65802660     0.33600
H462        H  0.22963572  0.71124573  0.62370403     0.38100
H463        H  0.26515694  0.83870259  0.71469363     0.33600
H464        H  0.24315817  0.82165379  0.75402429     0.30300
H465        H  0.18357709  0.75591981  0.80498895     0.33600
H466        H  0.20133102  0.78230931  0.76969062     0.30300
H467        H  0.29410725  0.75570677  0.88297513     0.38100
H468        H  0.31033487  0.73957587  0.83966265     0.33600
C469        C  0.25560718  0.76214597  0.13269748    -0.20100
C470        C  0.27462983  0.74193493  0.15018328     0.36100
C471        C  0.27300699  0.73638037  0.19480552    -0.26100
C472        C  0.25254228  0.74971813  0.22261192     0.02500
C473        C  0.23328139  0.76924152  0.20530892     0.27300
C474        C  0.23516124  0.77546065  0.16086819    -0.25200
N475        N  0.29582463  0.72752688  0.12297851    -0.82600
H476        H  0.28792498  0.72159116  0.20807485     0.13100
C477        C  0.25168627  0.74341161  0.26974488     0.02500
N478        N  0.21171691  0.78251482  0.23295628    -0.81200
H479        H  0.22028409  0.79069609  0.14822320     0.18000
C480        C  0.25070103  0.77004022  0.29592582    -0.26000
C481        C  0.24966454  0.76523988  0.34049396     0.36000
C482        C  0.24979196  0.73301110  0.35950486    -0.20000
C483        C  0.25127561  0.70639381  0.33317827    -0.25300
C484        C  0.25192344  0.71120257  0.28870531     0.27400
H485        H  0.25097707  0.79478590  0.28139970     0.13100
N486        N  0.24888609  0.79300846  0.36633184    -0.82600
H487        H  0.25115943  0.68158870  0.34750127     0.18000
N488        N  0.25230003  0.68347039  0.26283967    -0.81200
H489        H  0.24853735  0.81491985  0.34752076     0.33600
H490        H  0.26653206  0.79323342  0.37975360     0.38100
H491        H  0.25252954  0.66151429  0.28160052     0.33600
H492        H  0.23460414  0.68353142  0.24953744     0.30300
H493        H  0.19935028  0.79655859  0.21533258     0.33600
H494        H  0.20027968  0.76279405  0.24802349     0.30300
H495        H  0.28747050  0.70943205  0.10689484     0.38100
H496        H  0.30898779  0.71536453  0.14105667     0.33600
C497        C  0.06112612  0.93255460  0.50062569    -0.20100
C498        C  0.06267755  0.90844351  0.53424615     0.36100
C499        C  0.08452778  0.88737460  0.53229880    -0.26100
C500        C  0.10516382  0.89033740  0.49824470     0.02500
C501        C  0.10366858  0.91418741  0.46461215     0.27300
C502        C  0.08147074  0.93471288  0.46583299    -0.25200
N503        N  0.04194824  0.90487615  0.56983487    -0.82600
H504        H  0.08572858  0.86878300  0.55787598     0.13100
C505        C  0.12855990  0.86885817  0.49910461     0.02500
N506        N  0.12494902  0.91791663  0.42989059    -0.81200
H507        H  0.08048078  0.95321577  0.44009386     0.18000
C508        C  0.13535648  0.84763903  0.46631852    -0.26000
C509        C  0.15734436  0.82674807  0.46641559     0.36000
C510        C  0.17265062  0.82688465  0.50052638    -0.20000
C511        C  0.16561301  0.84832713  0.53322862    -0.25300
C512        C  0.14388695  0.86930197  0.53280850     0.27400
H513        H  0.12340115  0.84741299  0.44055449     0.13100
N514        N  0.16407837  0.80567729  0.43198742    -0.82600
H515        H  0.17714621  0.84890510  0.55946802     0.18000
N516        N  0.13736246  0.89118812  0.56643364    -0.81200
H517        H  0.15021961  0.80781575  0.41049169     0.33600
H518        H  0.18215381  0.81400000  0.41513642     0.38100
H519        H  0.15044071  0.88825249  0.58909271     0.33600
H520        H  0.13998927  0.91519106  0.55297976     0.30300
H521        H  0.12073897  0.93651062  0.40767012     0.33600
H522        H  0.14176884  0.92556380  0.44231094     0.30300
H523        H  0.04362734  0.92460968  0.58878172     0.38100
H524        H  0.04484262  0.88380914  0.58908963     0.33600
C525        C  0.44700614  0.92687259  0.50357277    -0.20100
C526        C  0.43973319  0.90465696  0.53934009     0.36100
C527        C  0.41853253  0.88266447  0.53910190    -0.26100
C528        C  0.40447597  0.88250886  0.50411618     0.02500
C529        C  0.41163994  0.90447663  0.46843511     0.27300
C530        C  0.43312986  0.92603684  0.46821072    -0.25200
N531        N  0.45359395  0.90471265  0.57593017    -0.82600
H532        H  0.41245529  0.86609732  0.56674147     0.13100
C533        C  0.38015989  0.86234587  0.50758962     0.02500
N534        N  0.39604922  0.90619060  0.43379263    -0.81200
H535        H  0.43828183  0.94329586  0.44099276     0.18000
C536        C  0.35686185  0.87473340  0.52906209    -0.26000
C537        C  0.33286103  0.85742029  0.53235784     0.36000
C538        C  0.33203666  0.82736038  0.51255149    -0.20000
C539        C  0.35571090  0.81437937  0.49236470    -0.25300
C540        C  0.37988127  0.83157003  0.48989112     0.27400
H541        H  0.35748295  0.89809180  0.54338628     0.13100
N542        N  0.30943980  0.87008488  0.55626631    -0.82600
H543        H  0.35529383  0.79105939  0.47792710     0.18000
N544        N  0.40412098  0.81765482  0.47038190    -0.81200
H545        H  0.31346924  0.89248128  0.56844410     0.33600
H546        H  0.30390934  0.85362017  0.58256814     0.38100
H547        H  0.40052206  0.79454940  0.45977682     0.33600
H548        H  0.41127295  0.83254552  0.44331269     0.30300
H549        H  0.40332321  0.92458767  0.41077569     0.33600
H550        H  0.39815629  0.88408262  0.41888000     0.30300
H551        H  0.47302648  0.89728122  0.56644262     0.38100
H552        H  0.44533423  0.88741755  0.59973092     0.33600
C553        C  0.33456665  0.67411059  0.50217245    -0.20100
C554        C  0.35332301  0.67233360  0.46545437     0.36100
C555        C  0.37552139  0.65211960  0.46695645    -0.26100
C556        C  0.37910245  0.63324665  0.50425843     0.02500
C557        C  0.36084115  0.63616427  0.54158201     0.27300
C558        C  0.33892467  0.65701390  0.54026559    -0.25200
N559        N  0.34959296  0.69093105  0.42674518    -0.82600
H560        H  0.38989191  0.65059115  0.43867229     0.13100
C561        C  0.40153748  0.60980353  0.50323376     0.02500
N562        N  0.36407730  0.61708051  0.58016286    -0.81200
H563        H  0.32442957  0.65855938  0.56840399     0.18000
C564        C  0.41932532  0.61126010  0.53321122    -0.26000
C565        C  0.44015125  0.58873862  0.53420828     0.36000
C566        C  0.44375197  0.56483042  0.50358146    -0.20000
C567        C  0.42644914  0.56404451  0.47278775    -0.25300
C568        C  0.40512303  0.58585165  0.47272395     0.27400
H569        H  0.41681995  0.62996959  0.55615326     0.13100
N570        N  0.45803885  0.59080561  0.56536943    -0.82600
H571        H  0.42911142  0.54564888  0.44941504     0.18000
N572        N  0.38680410  0.58336558  0.44229792    -0.81200
H573        H  0.45403300  0.61156719  0.58277766     0.33600
H574        H  0.45416281  0.57067378  0.58734564     0.38100
H575        H  0.39232617  0.56461452  0.42198079     0.33600
H576        H  0.36834550  0.57664868  0.45924007     0.30300
H577        H  0.34901175  0.62216023  0.60462833     0.33600
H578        H  0.36199308  0.59234708  0.57439433     0.30300
H579        H  0.35050870  0.71579853  0.43259225     0.38100
H580        H  0.36510207  0.68678873  0.40256736     0.33600
C581        C  0.05673574  0.56982323  0.49955688    -0.20100
C582        C  0.06505826  0.58162045  0.53680344     0.36100
C583        C  0.08619373  0.60426265  0.53280680    -0.26100
C584        C  0.09921709  0.61539236  0.49269358     0.02500
C585        C  0.09004148  0.60513781  0.45564504     0.27300
C586        C  0.06901312  0.58252890  0.45944932    -0.25200
N587        N  0.05256613  0.57030782  0.57854546    -0.82600
H588        H  0.09337627  0.61209258  0.56122905     0.13100
C589        C  0.12398590  0.63506959  0.48988148     0.02500
N590        N  0.10249152  0.61731568  0.41423137    -0.81200
H591        H  0.06259943  0.57432920  0.43064112     0.18000
C592        C  0.14715194  0.62309849  0.46724362    -0.26000
C593        C  0.17149901  0.63952271  0.46514009     0.36000
C594        C  0.17284023  0.66887409  0.48644424    -0.20000
C595        C  0.14942845  0.68112684  0.50860503    -0.25300
C596        C  0.12504726  0.66447997  0.51063648     0.27400
H597        H  0.14634684  0.60023525  0.45183247     0.13100
N598        N  0.19465091  0.62652839  0.44090297    -0.82600
H599        H  0.15017899  0.70356848  0.52491934     0.18000
N600        N  0.10140495  0.67725533  0.53368918    -0.81200
H601        H  0.18946369  0.60751784  0.42292856     0.33600
H602        H  0.20626695  0.61574100  0.46265778     0.38100
H603        H  0.10556995  0.69898582  0.54735039     0.33600
H604        H  0.08837072  0.68332473  0.51168389     0.30300
H605        H  0.09358634  0.60714840  0.39018195     0.33600
H606        H  0.09924718  0.64259608  0.41157912     0.30300
H607        H  0.05831198  0.54599367  0.58393480     0.38100
H608        H  0.05965525  0.58343063  0.60200049     0.33600
C609        C  0.16628586  0.82715748  0.99707634    -0.20100
C610        C  0.14124725  0.81315015  0.99419072     0.36100
C611        C  0.11927055  0.83388109  0.99268042    -0.26100
C612        C  0.12202132  0.86795504  0.99398764     0.02500
C613        C  0.14712167  0.88195515  0.99487017     0.27300
C614        C  0.16897535  0.86143937  0.99635730    -0.25200
N615        N  0.13786772  0.77813680  0.99528037    -0.82600
H616        H  0.09978830  0.82345125  0.99194491     0.13100
C617        C  0.09832629  0.88881993  0.99763838     0.02500
N618        N  0.15012283  0.91695551  0.99526025    -0.81200
H619        H  0.18824222  0.87231915  0.99759035     0.18000
C620        C  0.09110429  0.90417355  0.03570540    -0.26000
C621        C  0.06983479  0.92606291  0.03999879     0.36000
C622        C  0.05499706  0.93188279  0.00566966    -0.20000
C623        C  0.06216910  0.91597235  0.96775037    -0.25300
C624        C  0.08391575  0.89479545  0.96322017     0.27400
H625        H  0.10262750  0.89963919  0.06178698     0.13100
N626        N  0.06391310  0.94304948  0.07848169    -0.82600
H627        H  0.05101244  0.92043794  0.94123472     0.18000
N628        N  0.09177781  0.87989542  0.92363555    -0.81200
H629        H  0.07647840  0.93544048  0.10062637     0.33600
H630        H  0.06802316  0.96795318  0.07068789     0.38100
H631        H  0.07903542  0.88681472  0.90148051     0.33600
H632        H  0.11051705  0.88921565  0.91104481     0.30300
H633        H  0.16987236  0.92330577  0.99654137     0.33600
H634        H  0.14532178  0.92731540  0.96632777     0.30300
H635        H  0.14751573  0.77015318  0.96658771     0.38100
H636        H  0.11786669  0.77198481  0.99614625     0.33600
C637        C  0.43960935  0.92949093  0.00535776    -0.20100
C638        C  0.42524943  0.91317675  0.04215588     0.36100
C639        C  0.40454071  0.89144823  0.03753980    -0.26100
C640        C  0.39744780  0.88614120  0.99733195     0.02500
C641        C  0.41166326  0.90210276  0.96070872     0.27300
C642        C  0.43261021  0.92339787  0.96504338    -0.25200
N643        N  0.43131160  0.91886518  0.08407508    -0.82600
H644        H  0.39324635  0.87933390  0.06560252     0.13100
C645        C  0.37411152  0.86520488  0.99433933     0.02500
N646        N  0.40461565  0.89674942  0.91926846    -0.81200
H647        H  0.44327425  0.93563179  0.93654678     0.18000
C648        C  0.35205417  0.87945253  0.97858185    -0.26000
C649        C  0.32883671  0.86112646  0.97795366     0.36000
C650        C  0.32770680  0.82797372  0.99360345    -0.20400
C651        C  0.35009088  0.81332608  0.00774626    -0.25300
C652        C  0.37334146  0.83171836  0.00841065     0.27400
H653        H  0.35280097  0.90515441  0.96761795     0.13100
N654        N  0.30630737  0.87603509  0.96182362    -0.82600
H655        H  0.34906588  0.78787617  0.01979055     0.18000
N656        N  0.39603658  0.81675212  0.02384478    -0.81200
H657        H  0.31034588  0.90060116  0.95171878     0.33600
H658        H  0.30312191  0.86400886  0.93478277     0.38100
H659        H  0.39216690  0.79203499  0.03327214     0.33600
H660        H  0.41139748  0.81727299  0.99835986     0.30300
H661        H  0.41685915  0.91055785  0.89555076     0.33600
H662        H  0.40812144  0.87207836  0.91359730     0.30300
H663        H  0.42541811  0.94275694  0.09061215     0.38100
H664        H  0.41999658  0.90339153  0.10710024     0.33600
C665        C  0.32833546  0.67001612  0.99779162    -0.20100
C666        C  0.35316046  0.68555097  0.99805793     0.36100
C667        C  0.37584831  0.66616039  0.00065406    -0.26100
C668        C  0.37421911  0.63180780  0.00198831     0.02500
C669        C  0.34976576  0.61642284  0.99988038     0.27300
C670        C  0.32710203  0.63557197  0.99845261    -0.25200
N671        N  0.35537801  0.72073806  0.99506640    -0.82600
H672        H  0.39485640  0.67778902  0.00163955     0.13100
C673        C  0.39796018  0.61161258  0.00608095     0.02500
N674        N  0.34813889  0.58130497  0.99895357    -0.81200
H675        H  0.30830160  0.62334965  0.99778768     0.18000
C676        C  0.39775608  0.58971993  0.04198012    -0.26000
C677        C  0.41800618  0.56671129  0.04479553     0.36000
C678        C  0.43921047  0.56608027  0.01114563    -0.20000
C679        C  0.43989578  0.58902938  0.97602923    -0.25300
C680        C  0.41940614  0.61171093  0.97305502     0.27400
H681        H  0.38112142  0.58982229  0.06719374     0.13100
N682        N  0.41652190  0.54334931  0.08091160    -0.82600
H683        H  0.45626381  0.58889414  0.95038121     0.18000
N684        N  0.41992427  0.63418366  0.93620159    -0.81200
H685        H  0.39990348  0.54764796  0.10300476     0.33600
H686        H  0.41377184  0.52011513  0.07000221     0.38100
H687        H  0.43720451  0.63120878  0.91495800     0.33600
H688        H  0.40408671  0.62811351  0.92028023     0.30300
H689        H  0.32867199  0.57378134  0.99756655     0.33600
H690        H  0.35938615  0.57469920  0.97073599     0.30300
H691        H  0.35077503  0.72906752  0.96510628     0.38100
H692        H  0.37492794  0.72809397  0.99612620     0.33600
C693        C  0.16483960  0.67163835  0.99769999    -0.20100
C694        C  0.14288768  0.67788058  0.02865163     0.36100
C695        C  0.11967188  0.65881416  0.03096680    -0.26100
C696        C  0.11814705  0.63332805  0.00385345     0.02500
C697        C  0.13994944  0.62670046  0.97350886     0.27300
C698        C  0.16292218  0.64607727  0.97043645    -0.25200
N699        N  0.14431338  0.70288285  0.05824608    -0.82600
H700        H  0.10282620  0.66337143  0.05455427     0.13100
C701        C  0.09404242  0.61261969  0.00850602     0.02500
N702        N  0.13875092  0.59996919  0.94635285    -0.81200
H703        H  0.17954433  0.64082830  0.94680547     0.18000
C704        C  0.07751096  0.61498666  0.97661183    -0.26000
C705        C  0.05578881  0.59360997  0.97794031     0.36000
C706        C  0.05101826  0.56888249  0.01138564    -0.20000
C707        C  0.06689532  0.56764236  0.04435276    -0.25300
C708        C  0.08847569  0.58924730  0.04313093     0.27400
H709        H  0.08180234  0.63335319  0.95039718     0.13100
N710        N  0.03858916  0.59692395  0.94553463    -0.82600
H711        H  0.06316576  0.54888203  0.07018894     0.18000
N712        N  0.10522356  0.58700570  0.07620798    -0.81200
H713        H  0.04492029  0.61625187  0.92330203     0.33600
H714        H  0.01984430  0.60328173  0.96035447     0.38100
H715        H  0.09834454  0.56863293  0.09951853     0.33600
H716        H  0.12400236  0.57980235  0.06253455     0.30300
H717        H  0.15643994  0.59838828  0.92563137     0.33600
H718        H  0.13701573  0.57821396  0.96577764     0.30300
H719        H  0.15815950  0.69531051  0.07828143     0.38100
H720        H  0.12623046  0.70482679  0.07787403     0.33600
O721        O  0.51932646  0.02919287  0.04639793    -0.74700
O722        O  0.96740297  0.46172505  0.04351388    -0.74700
O723        O  0.52080274  0.46332934  0.04378703    -0.74800
O724        O  0.96613195  0.02775863  0.04637363    -0.74800
O725        O  0.97228217  0.03309685  0.97539009    -0.74700
O726        O  0.52652541  0.46834323  0.97281463    -0.74700
O727        O  0.97336073  0.46714740  0.97269385    -0.74700
O728        O  0.52508206  0.03425562  0.97537285    -0.74800
Ni729      Ni  0.99320698  0.49533586  0.04750244     1.25400
Ni730      Ni  0.49946203  0.00086321  0.97154734     1.25400
C731        C  0.53066398  0.04298090  0.01120529     0.87500
C732        C  0.96133942  0.45371533  0.00757628     0.87400
C733        C  0.53299366  0.45558272  0.00781849     0.87500
C734        C  0.96022590  0.04112094  0.01128271     0.87600
O735        O  0.52499474  0.03070196  0.53720993    -0.74700
O736        O  0.97355330  0.46212437  0.53828438    -0.74700
O737        O  0.52672126  0.46437861  0.53696706    -0.74800
O738        O  0.97190595  0.02841727  0.53874378    -0.74800
O739        O  0.97658537  0.03141844  0.46774290    -0.74700
O740        O  0.53247271  0.46807426  0.46598140    -0.74700
O741        O  0.97915941  0.46496581  0.46729998    -0.74700
O742        O  0.52984698  0.03448545  0.46636515    -0.74800
Ni743      Ni  0.99912949  0.49624850  0.54003854     1.25400
Ni744      Ni  0.50467425  0.00000701  0.46432960     1.25400
C745        C  0.53603963  0.04393821  0.50156573     0.87500
C746        C  0.96781347  0.45221398  0.50307174     0.87400
C747        C  0.53879855  0.45579376  0.50137699     0.87500
C748        C  0.96519981  0.04052276  0.50360106     0.87600
O749        O  0.70648882  0.31884863  0.02524976    -0.81100
O750        O  0.80127760  0.21747956  0.00822705    -0.65800
O751        O  0.74762630  0.27949937  0.98806671    -1.12400
C752        C  0.69029976  0.19010707  0.99434693     1.05700
O753        O  0.78478907  0.17395878  0.98163480    -0.79000
O754        O  0.75623436  0.20662044  0.92657299    -0.66600
Ni755      Ni  0.74442967  0.31741531  0.02097807     1.34900
C756        C  0.74133654  0.22881161  0.91336405     0.84500
O757        O  0.80226269  0.28078878  0.98605679    -0.79600
O758        O  0.78212129  0.32281462  0.01850884    -0.89900
C759        C  0.80343751  0.18853248  0.99593216     0.84100
O760        O  0.74148230  0.29273460  0.07448587    -0.68100
O761        O  0.71061388  0.17887702  0.97221452    -0.87300
C762        C  0.75651334  0.27018067  0.08647351     0.84900
C763        C  0.80256222  0.30934456  0.99965078     1.06500
H764        H  0.74287486  0.21069322  0.04138456     0.38300
O765        O  0.74573822  0.21778380  0.01149315    -1.10000
O766        O  0.72293598  0.24171189  0.93825510    -0.66700
Ni767      Ni  0.71913500  0.24850751  0.99902971     1.26300
O768        O  0.77242242  0.25513958  0.05982749    -0.66900
O769        O  0.69129522  0.21691901  0.01201853    -0.79200
C770        C  0.68996349  0.30728717  0.00335345     0.84300
O771        O  0.69340060  0.28005242  0.98663267    -0.66400
Ni772      Ni  0.74788975  0.18002676  0.97810953     1.27400
Ni773      Ni  0.77457543  0.24888771  0.99915335     1.26100
H774        H  0.75048065  0.28693697  0.95826213     0.38800
O775        O  0.71048247  0.31033629  0.53280998    -0.81100
O776        O  0.80221226  0.21354242  0.52630985    -0.65800
O777        O  0.75441266  0.27860152  0.49265536    -1.12400
C778        C  0.69833460  0.18685314  0.48661143     1.05700
O779        O  0.79542966  0.18421416  0.47221622    -0.79000
O780        O  0.75840819  0.20048215  0.42125730    -0.66600
Ni781      Ni  0.74812954  0.31731017  0.52260320     1.34900
C782        C  0.74767312  0.22625452  0.40728373     0.84500
O783        O  0.80651310  0.27889765  0.51205742    -0.79600
O784        O  0.78522685  0.32714609  0.51406967    -0.89900
C785        C  0.80935158  0.19152569  0.50080526     0.84100
O786        O  0.75037923  0.29975394  0.57922835    -0.68100
O787        O  0.71990468  0.17091356  0.47972706    -0.87300
C788        C  0.75791188  0.27242693  0.59449374     0.84900
C789        C  0.80631318  0.31017660  0.51277382     1.06500
H790        H  0.74375739  0.20876051  0.53795710     0.38300
O791        O  0.75026271  0.21702036  0.50924230    -1.10000
O792        O  0.73462281  0.24590777  0.43168275    -0.66700
Ni793      Ni  0.72557850  0.24874552  0.49259048     1.26300
O794        O  0.76778605  0.25001501  0.57125277    -0.66900
O795        O  0.69755642  0.21733382  0.49347131    -0.79200
C796        C  0.69604826  0.30554421  0.50407842     0.84300
O797        O  0.70163011  0.28272580  0.47905392    -0.66400
Ni798      Ni  0.75729875  0.17952444  0.47691472     1.27400
Ni799      Ni  0.77867200  0.24719227  0.51094468     1.26100
H800        H  0.76099336  0.28579500  0.46355583     0.38800
C801        C  0.74458067  0.23885343  0.86725022    -0.20100
C802        C  0.76984925  0.24081553  0.84247153     0.36100
C803        C  0.77179780  0.24803252  0.79817747    -0.26100
C804        C  0.74906128  0.25358973  0.77842694     0.02500
C805        C  0.72394756  0.25296385  0.80327228     0.27300
C806        C  0.72194245  0.24565504  0.84749966    -0.25200
N807        N  0.79337951  0.23565895  0.86238676    -0.82600
H808        H  0.79105806  0.24896423  0.77884843     0.13100
C809        C  0.75165978  0.25871404  0.73141505     0.02500
N810        N  0.70058234  0.25908743  0.78326208    -0.81200
H811        H  0.70256504  0.24437371  0.86646264     0.18000
C812        C  0.74820299  0.23187035  0.70721158    -0.26000
C813        C  0.75009696  0.23560549  0.66249117     0.36000
C814        C  0.75549468  0.26698062  0.64163186    -0.20000
C815        C  0.75891232  0.29383594  0.66617039    -0.25300
C816        C  0.75721614  0.28995720  0.71084132     0.27400
H817        H  0.74388074  0.20793350  0.72340588     0.13100
N818        N  0.74614647  0.20778584  0.63837352    -0.82600
H819        H  0.76330786  0.31788648  0.65035909     0.18000
N820        N  0.76138311  0.31746882  0.73537660    -0.81200
H821        H  0.74268428  0.18652525  0.65851638     0.33600
H822        H  0.72894177  0.21192172  0.62426697     0.38100
H823        H  0.76567196  0.33865937  0.71536635     0.33600
H824        H  0.74358676  0.32180824  0.75471581     0.30300
H825        H  0.68362024  0.25727386  0.80589914     0.33600
H826        H  0.70163596  0.28336618  0.77053514     0.30300
H827        H  0.79448043  0.25440579  0.88310307     0.38100
H828        H  0.81030064  0.23796231  0.83970576     0.33600
C829        C  0.75547172  0.26173031  0.13339355    -0.20100
C830        C  0.77436294  0.24125069  0.15080372     0.36100
C831        C  0.77280689  0.23571305  0.19542670    -0.26100
C832        C  0.75252698  0.24932915  0.22330820     0.02500
C833        C  0.73336075  0.26905785  0.20607891     0.27300
C834        C  0.73518517  0.27526689  0.16164387    -0.25200
N835        N  0.79534819  0.22652881  0.12351920    -0.82600
H836        H  0.78763659  0.22073002  0.20863487     0.13100
C837        C  0.75175179  0.24310800  0.27044320     0.02500
N838        N  0.71194556  0.28255639  0.23380369    -0.81200
H839        H  0.72039795  0.29069676  0.14907366     0.18000
C840        C  0.75105551  0.26980149  0.29649276    -0.26000
C841        C  0.75002060  0.26508597  0.34107232     0.36000
C842        C  0.74985251  0.23288570  0.36021532    -0.20000
C843        C  0.75108311  0.20620014  0.33402719    -0.25300
C844        C  0.75172772  0.21092262  0.28954814     0.27400
H845        H  0.75153764  0.29452379  0.28185623     0.13100
N846        N  0.74954626  0.29289734  0.36679170    -0.82600
H847        H  0.75075575  0.18141902  0.34847402     0.18000
N848        N  0.75182111  0.18313402  0.26383149    -0.81200
H849        H  0.74942292  0.31479316  0.34788710     0.33600
H850        H  0.76719834  0.29285709  0.38021625     0.38100
H851        H  0.75188194  0.16120561  0.28269360     0.33600
H852        H  0.73410286  0.18340125  0.25058338     0.30300
H853        H  0.69963149  0.29673121  0.21623292     0.33600
H854        H  0.70040018  0.26295270  0.24894652     0.30300
H855        H  0.78675751  0.20862429  0.10743812     0.38100
H856        H  0.80841132  0.21409946  0.14153320     0.33600
C857        C  0.56086356  0.43212727  0.50100513    -0.20100
C858        C  0.56163477  0.40717190  0.53384037     0.36100
C859        C  0.58344777  0.38604665  0.53228089    -0.26100
C860        C  0.60474160  0.38974713  0.49935612     0.02500
C861        C  0.60397841  0.41443937  0.46647647     0.27300
C862        C  0.58185508  0.43504405  0.46729892    -0.25200
N863        N  0.54011477  0.40275690  0.56809067    -0.82600
H864        H  0.58406805  0.36679422  0.55723759     0.13100
C865        C  0.62800501  0.36807477  0.50050132     0.02500
N866        N  0.62591498  0.41892531  0.43295124    -0.81200
H867        H  0.58141201  0.45420241  0.44218351     0.18000
C868        C  0.63556671  0.34798265  0.46672634    -0.26000
C869        C  0.65763006  0.32722569  0.46674881     0.36000
C870        C  0.67219301  0.32627226  0.50180917    -0.20000
C871        C  0.66433554  0.34646072  0.53560466    -0.25300
C872        C  0.64256054  0.36737681  0.53523917     0.27400
H873        H  0.62420840  0.34862617  0.44016454     0.13100
N874        N  0.66528008  0.30750711  0.43119332    -0.82600
H875        H  0.67529613  0.34612991  0.56260534     0.18000
N876        N  0.63526054  0.38811369  0.56990039    -0.81200
H877        H  0.65195281  0.31040604  0.40891323     0.33600
H878        H  0.68356142  0.31642011  0.41578485     0.38100
H879        H  0.64784437  0.38443345  0.59319202     0.33600
H880        H  0.63800255  0.41246169  0.55780625     0.30300
H881        H  0.62219184  0.43807942  0.41116246     0.33600
H882        H  0.64234510  0.42611183  0.44675483     0.30300
H883        H  0.54114425  0.42195612  0.58811415     0.38100
H884        H  0.54260057  0.38125087  0.58676839     0.33600
C885        C  0.94719211  0.42649606  0.50342933    -0.20100
C886        C  0.93967041  0.40459616  0.53944464     0.36100
C887        C  0.91846559  0.38261025  0.53918727    -0.26100
C888        C  0.90478121  0.38204741  0.50382908     0.02500
C889        C  0.91247316  0.40329261  0.46765165     0.27300
C890        C  0.93380621  0.42503949  0.46759191    -0.25200
N891        N  0.95328099  0.40496724  0.57627997    -0.82600
H892        H  0.91206718  0.36643489  0.56708559     0.13100
C893        C  0.88023000  0.36239696  0.50723686     0.02500
N894        N  0.89768996  0.40382708  0.43206670    -0.81200
H895        H  0.93926534  0.44187012  0.44002261     0.18000
C896        C  0.85660095  0.37678070  0.52426522    -0.26000
C897        C  0.83240178  0.35993358  0.52749717     0.36000
C898        C  0.83176673  0.32806492  0.51220048    -0.20000
C899        C  0.85574652  0.31338743  0.49604504    -0.25300
C900        C  0.88004624  0.33029791  0.49349302     0.27400
H901        H  0.85712920  0.40134752  0.53527722     0.13100
N902        N  0.80860605  0.37501793  0.54681125    -0.82600
H903        H  0.85551661  0.28889352  0.48478439     0.18000
N904        N  0.90447525  0.31498677  0.47745990    -0.81200
H905        H  0.81255344  0.39861696  0.55550821     0.33600
H906        H  0.80191971  0.36117810  0.57508160     0.38100
H907        H  0.90091942  0.29113582  0.46926563     0.33600
H908        H  0.91241808  0.32813293  0.44931138     0.30300
H909        H  0.90541676  0.42156220  0.40845152     0.33600
H910        H  0.90014514  0.38116562  0.41852617     0.30300
H911        H  0.97274362  0.39746856  0.56719424     0.38100
H912        H  0.94488882  0.38783312  0.60018357     0.33600
C913        C  0.83471667  0.17451166  0.50289312    -0.20100
C914        C  0.85308736  0.17194962  0.46585293     0.36100
C915        C  0.87526935  0.15172215  0.46739548    -0.26100
C916        C  0.87921791  0.13357369  0.50505753     0.02500
C917        C  0.86140524  0.13734888  0.54267664     0.27300
C918        C  0.83950380  0.15822867  0.54129691    -0.25200
N919        N  0.84897357  0.18974871  0.42676486    -0.82600
H920        H  0.88932429  0.14958510  0.43886051     0.13100
C921        C  0.90154384  0.10996436  0.50409596     0.02500
N922        N  0.86505799  0.11908231  0.58166565    -0.81200
H923        H  0.82532589  0.16038211  0.56969271     0.18000
C924        C  0.91977576  0.11188833  0.53331368    -0.26000
C925        C  0.94059093  0.08933884  0.53421881     0.36000
C926        C  0.94368547  0.06489822  0.50430658    -0.20000
C927        C  0.92592890  0.06359209  0.47427687    -0.25300
C928        C  0.90464094  0.08545840  0.47429092     0.27400
H929        H  0.91766626  0.13102827  0.55566774     0.13100
N930        N  0.95902329  0.09194685  0.56444334    -0.82600
H931        H  0.92823895  0.04478203  0.45144403     0.18000
N932        N  0.88589466  0.08251107  0.44463375    -0.81200
H933        H  0.95527348  0.11296409  0.58142936     0.33600
H934        H  0.95550649  0.07208720  0.58693333     0.38100
H935        H  0.89109930  0.06339662  0.42475522     0.33600
H936        H  0.86756802  0.07610775  0.46225888     0.30300
H937        H  0.85029937  0.12474016  0.60630955     0.33600
H938        H  0.86277092  0.09419083  0.57692634     0.30300
H939        H  0.85006123  0.21477365  0.43165745     0.38100
H940        H  0.86421482  0.18507122  0.40238718     0.33600
C941        C  0.55670959  0.06992692  0.50038799    -0.20100
C942        C  0.56561811  0.08077771  0.53771390     0.36100
C943        C  0.58682211  0.10331030  0.53380490    -0.26100
C944        C  0.59933299  0.11525859  0.49371010     0.02500
C945        C  0.58957178  0.10596424  0.45668550     0.27300
C946        C  0.56847111  0.08346519  0.46039354    -0.25200
N947        N  0.55367456  0.06858582  0.57941093    -0.82600
H948        H  0.59444527  0.11043837  0.56220195     0.13100
C949        C  0.62409153  0.13495771  0.49075581     0.02500
N950        N  0.60148540  0.11902563  0.41536816    -0.81200
H951        H  0.56158106  0.07601976  0.43157338     0.18000
C952        C  0.64707032  0.12354587  0.46693748    -0.26000
C953        C  0.67139975  0.14006204  0.46462896     0.36000
C954        C  0.67291001  0.16882514  0.48703347    -0.20000
C955        C  0.64967511  0.18057262  0.51028131    -0.25300
C956        C  0.62530546  0.16390835  0.51241828     0.27400
H957        H  0.64613279  0.10108464  0.45069426     0.13100
N958        N  0.69433316  0.12786389  0.43896223    -0.82600
H959        H  0.65056746  0.20262243  0.52735644     0.18000
N960        N  0.60181929  0.17621182  0.53646863    -0.81200
H961        H  0.68895666  0.10933867  0.42039158     0.33600
H962        H  0.70637961  0.11661811  0.45972322     0.38100
H963        H  0.60608405  0.19765936  0.55067584     0.33600
H964        H  0.58852595  0.18266556  0.51501574     0.30300
H965        H  0.59216915  0.10952514  0.39130602     0.33600
H966        H  0.59826370  0.14433153  0.41384396     0.30300
H967        H  0.55938141  0.04413237  0.58358270     0.38100
H968        H  0.56121277  0.08101557  0.60306602     0.33600
C969        C  0.66627331  0.32704248  0.99768384    -0.20100
C970        C  0.64112364  0.31298257  0.99580931     0.36100
C971        C  0.61914541  0.33371546  0.99436733    -0.26100
C972        C  0.62201277  0.36784452  0.99475318     0.02500
C973        C  0.64721287  0.38186743  0.99463917     0.27300
C974        C  0.66906792  0.36134295  0.99606698    -0.25200
N975        N  0.63766192  0.27794801  0.99788162    -0.82600
H976        H  0.59958797  0.32326801  0.99438764     0.13100
C977        C  0.59836733  0.38879302  0.99833691     0.02500
N978        N  0.65032405  0.41690855  0.99406756    -0.81200
H979        H  0.68842202  0.37222765  0.99655763     0.18000
C980        C  0.59142782  0.40469477  0.03606099    -0.26000
C981        C  0.57017740  0.42662488  0.04020462     0.36000
C982        C  0.55510044  0.43195015  0.00609129    -0.20000
C983        C  0.56200836  0.41552681  0.96851708    -0.25300
C984        C  0.58371398  0.39428235  0.96412519     0.27400
H985        H  0.60313994  0.40053698  0.06197199     0.13100
N986        N  0.56450933  0.44415126  0.07828593    -0.82600
H987        H  0.55066059  0.41962378  0.94216943     0.18000
N988        N  0.59128561  0.37880738  0.92487411    -0.81200
H989        H  0.57725211  0.43690188  0.10031287     0.33600
H990        H  0.56855513  0.46898745  0.06985996     0.38100
H991        H  0.57838847  0.38541201  0.90283834     0.33600
H992        H  0.60998530  0.38796493  0.91177034     0.30300
H993        H  0.67014698  0.42327627  0.99466269     0.33600
H994        H  0.64524620  0.42684930  0.96510718     0.30300
H995        H  0.64704224  0.26951456  0.96927177     0.38100
H996        H  0.61761547  0.27179753  0.99938477     0.33600
C997        C  0.93970640  0.42946380  0.00553550    -0.20100
C998        C  0.92570601  0.41270770  0.04231591     0.36100
C999        C  0.90495058  0.39101864  0.03779245    -0.26100
C1000       C  0.89745502  0.38618100  0.99771541     0.02500
C1001       C  0.91131028  0.40259532  0.96110638     0.27300
C1002       C  0.93230990  0.42384230  0.96533426    -0.25200
N1003       N  0.93220019  0.41787390  0.08413262    -0.82600
H1004       H  0.89393416  0.37856220  0.06585926     0.13100
C1005       C  0.87407938  0.36524975  0.99490319     0.02500
N1006       N  0.90384228  0.39775628  0.91979503    -0.81200
H1007       H  0.94268446  0.43643606  0.93685773     0.18000
C1008       C  0.85182077  0.37959878  0.97990628    -0.26000
C1009       C  0.82859165  0.36125054  0.97946234     0.36000
C1010       C  0.82763915  0.32797010  0.99456858    -0.20400
C1011       C  0.85020595  0.31324346  0.00797430    -0.25300
C1012       C  0.87348104  0.33165061  0.00840578     0.27400
H1013       H  0.85243062  0.40538616  0.96937090     0.13100
N1014       N  0.80587905  0.37625925  0.96403243    -0.82600
H1015       H  0.84932659  0.28769682  0.01958976     0.18000
N1016       N  0.89638794  0.31657196  0.02299756    -0.81200
H1017       H  0.80980368  0.40090637  0.95425435     0.33600
H1018       H  0.80250611  0.36449284  0.93688711     0.38100
H1019       H  0.89263583  0.29177555  0.03207051     0.33600
H1020       H  0.91153736  0.31737631  0.99717937     0.30300
H1021       H  0.91584959  0.41186284  0.89608482     0.33600
H1022       H  0.90733907  0.37319009  0.91351439     0.30300
H1023       H  0.92625577  0.44161586  0.09137077     0.38100
H1024       H  0.92116243  0.40206357  0.10708030     0.33600
C1025       C  0.82834362  0.17004200  0.99834421    -0.20100
C1026       C  0.85316159  0.18558067  0.99863781     0.36100
C1027       C  0.87583415  0.16618919  0.00132862    -0.26100
C1028       C  0.87419477  0.13183611  0.00269028     0.02500
C1029       C  0.84975045  0.11645178  0.00051829     0.27300
C1030       C  0.82709969  0.13560130  0.99903577    -0.25200
N1031       N  0.85538832  0.22076720  0.99556507    -0.82600
H1032       H  0.89483965  0.17781611  0.00234187     0.13100
C1033       C  0.89793033  0.11164228  0.00676275     0.02500
N1034       N  0.84812111  0.08133628  0.99956003    -0.81200
H1035       H  0.80830187  0.12338061  0.99834233     0.18000
C1036       C  0.89767461  0.08959052  0.04251922    -0.26000
C1037       C  0.91791405  0.06655561  0.04522351     0.36000
C1038       C  0.93916925  0.06609546  0.01164159    -0.20000
C1039       C  0.93991036  0.08920657  0.97669528    -0.25300
C1040       C  0.91941915  0.11188668  0.97380070     0.27400
H1041       H  0.88100251  0.08957793  0.06767942     0.13100
N1042       N  0.91636371  0.04298831  0.08112945    -0.82600
H1043       H  0.95631644  0.08918531  0.95109894     0.18000
N1044       N  0.91996998  0.13449067  0.93706973    -0.81200
H1045       H  0.89969824  0.04716027  0.10318670     0.33600
H1046       H  0.91365745  0.01983273  0.06995952     0.38100
H1047       H  0.93727900  0.13160621  0.91585792     0.33600
H1048       H  0.90416770  0.12847247  0.92103992     0.30300
H1049       H  0.82865895  0.07381882  0.99812145     0.33600
H1050       H  0.85939043  0.07474132  0.97135640     0.30300
H1051       H  0.85080489  0.22905599  0.96557768     0.38100
H1052       H  0.87493724  0.22812287  0.99663518     0.33600
C1053       C  0.66488042  0.17146577  0.99811346    -0.20100
C1054       C  0.64296446  0.17757118  0.02919021     0.36100
C1055       C  0.61976133  0.15847987  0.03148674    -0.26100
C1056       C  0.61821544  0.13309294  0.00422886     0.02500
C1057       C  0.63998858  0.12659088  0.97376259     0.27300
C1058       C  0.66294825  0.14599740  0.97071243    -0.25200
N1059       N  0.64442165  0.20245275  0.05893833    -0.82600
H1060       H  0.60294201  0.16294144  0.05516743     0.13100
C1061       C  0.59411241  0.11237430  0.00882895     0.02500
N1062       N  0.63877277  0.09995923  0.94645561    -0.81200
H1063       H  0.67954786  0.14084888  0.94698778     0.18000
C1064       C  0.57752385  0.11488468  0.97702040    -0.26000
C1065       C  0.55578136  0.09354346  0.97830493     0.36000
C1066       C  0.55103308  0.06871614  0.01162988    -0.20000
C1067       C  0.56697881  0.06731605  0.04450905    -0.25300
C1068       C  0.58858952  0.08887471  0.04331960     0.27400
H1069       H  0.58178458  0.13333970  0.95090479     0.13100
N1070       N  0.53853904  0.09699345  0.94597179    -0.82600
H1071       H  0.56327588  0.04846969  0.07024309     0.18000
N1072       N  0.60540943  0.08646176  0.07629104    -0.81200
H1073       H  0.54485964  0.11637682  0.92382018     0.33600
H1074       H  0.51981257  0.10333337  0.96088295     0.38100
H1075       H  0.59856167  0.06800594  0.09950380     0.33600
H1076       H  0.62416327  0.07928663  0.06247084     0.30300
H1077       H  0.65644049  0.09846043  0.92566275     0.33600
H1078       H  0.63707928  0.07814286  0.96575865     0.30300
H1079       H  0.65832570  0.19482516  0.07884290     0.38100
H1080       H  0.62636846  0.20429732  0.07867406     0.33600
O1081       O  0.51934262  0.52937900  0.04624991    -0.74700
O1082       O  0.96731447  0.96164561  0.04343399    -0.74700
O1083       O  0.52070971  0.96316193  0.04359036    -0.74800
O1084       O  0.96616721  0.52786753  0.04610200    -0.74800
O1085       O  0.97237157  0.53300189  0.97511403    -0.74700
O1086       O  0.52639075  0.96840319  0.97263460    -0.74700
O1087       O  0.97322164  0.96727472  0.97262439    -0.74700
O1088       O  0.52516603  0.53422674  0.97521596    -0.74800
Ni1089     Ni  0.99315228  0.99518898  0.04753700     1.25400
Ni1090     Ni  0.49957987  0.50077028  0.97149773     1.25400
C1091       C  0.53069518  0.54308434  0.01101850     0.87500
C1092       C  0.96122247  0.95375041  0.00746504     0.87400
C1093       C  0.53287840  0.95551911  0.00755998     0.87500
C1094       C  0.96028126  0.54112456  0.01093831     0.87600
O1095       O  0.52506185  0.53064085  0.53668971    -0.74700
O1096       O  0.97361058  0.96215669  0.53842927    -0.74700
O1097       O  0.52683398  0.96451677  0.53691634    -0.74800
O1098       O  0.97196524  0.52842615  0.53819446    -0.74800
O1099       O  0.97664591  0.53114289  0.46721301    -0.74700
O1100       O  0.53245805  0.96840964  0.46595640    -0.74700
O1101       O  0.97907440  0.96528440  0.46744137    -0.74700
O1102       O  0.52989609  0.53418321  0.46584571    -0.74800
Ni1103     Ni  0.99914051  0.99628820  0.54032818     1.25400
Ni1104     Ni  0.50472789  0.49969779  0.46404247     1.25400
C1105       C  0.53609204  0.54377643  0.50096248     0.87500
C1106       C  0.96775680  0.95244173  0.50319276     0.87400
C1107       C  0.53892054  0.95609419  0.50124045     0.87500
C1108       C  0.96526393  0.54041205  0.50299691     0.87600
O1109       O  0.70646803  0.81880784  0.02477228    -0.81100
O1110       O  0.80126550  0.71748398  0.00766941    -0.65800
O1111       O  0.74764072  0.77954768  0.98736711    -1.12400
C1112       C  0.69026887  0.69025324  0.99388215     1.05700
O1113       O  0.78475520  0.67396634  0.98110385    -0.79000
O1114       O  0.75623806  0.70672526  0.92603510    -0.66600
Ni1115     Ni  0.74443836  0.81759223  0.02003881     1.34900
C1116       C  0.74131647  0.72888755  0.91282080     0.84500
O1117       O  0.80229557  0.78077619  0.98541092    -0.79600
O1118       O  0.78213630  0.82314209  0.01710046    -0.89900
C1119       C  0.80341634  0.68852631  0.99539140     0.84100
O1120       O  0.74174733  0.79319737  0.07372482    -0.68100
O1121       O  0.71056638  0.67902339  0.97169457    -0.87300
C1122       C  0.75666161  0.77052955  0.08575289     0.84900
C1123       C  0.80259187  0.80945810  0.99862062     1.06500
H1124       H  0.74286621  0.71078885  0.04083408     0.38300
O1125       O  0.74572521  0.71786396  0.01093719    -1.10000
O1126       O  0.72288145  0.74172988  0.93769654    -0.66700
Ni1127     Ni  0.71913409  0.74860389  0.99843964     1.26300
O1128       O  0.77242207  0.75525520  0.05916221    -0.66900
O1129       O  0.69128838  0.71705760  0.01155325    -0.79200
C1130       C  0.68996504  0.80735774  0.00274885     0.84300
O1131       O  0.69341868  0.78015543  0.98596050    -0.66400
Ni1132     Ni  0.74785450  0.68010670  0.97756484     1.27400
Ni1133     Ni  0.77458010  0.74892546  0.99853114     1.26100
H1134       H  0.75049723  0.78690775  0.95753630     0.38800
O1135       O  0.71074830  0.81061024  0.53184434    -0.81100
O1136       O  0.80218705  0.71322677  0.52555458    -0.65800
O1137       O  0.75459230  0.77857952  0.49201738    -1.12400
C1138       C  0.69828187  0.68695015  0.48598135     1.05700
O1139       O  0.79538136  0.68410287  0.47131534    -0.79000
O1140       O  0.75828920  0.70043862  0.42048251    -0.66600
Ni1141     Ni  0.74843414  0.81726514  0.52213196     1.34900
C1142       C  0.74764424  0.72629420  0.40655417     0.84500
O1143       O  0.80674623  0.77848591  0.51120191    -0.79600
O1144       O  0.78559605  0.82684411  0.51428816    -0.89900
C1145       C  0.80928243  0.69124364  0.49999788     0.84100
O1146       O  0.75030992  0.79944281  0.57871235    -0.68100
O1147       O  0.71983988  0.67098903  0.47914574    -0.87300
C1148       C  0.75799795  0.77217668  0.59389991     0.84900
C1149       C  0.80660930  0.80969901  0.51261768     1.06500
H1150       H  0.74374713  0.70874125  0.53727630     0.38300
O1151       O  0.75026056  0.71698711  0.50855877    -1.10000
O1152       O  0.73470533  0.74599051  0.43100900    -0.66700
Ni1153     Ni  0.72565689  0.74881766  0.49189126     1.26300
O1154       O  0.76800955  0.74986777  0.57059149    -0.66900
O1155       O  0.69754662  0.71746748  0.49271331    -0.79200
C1156       C  0.69635846  0.80588874  0.50303217     0.84300
O1157       O  0.70181722  0.78290099  0.47823440    -0.66400
Ni1158     Ni  0.75723683  0.67950159  0.47616216     1.27400
Ni1159     Ni  0.77876536  0.74700157  0.51022141     1.26100
H1160       H  0.76118444  0.78580419  0.46293330     0.38800
C1161       C  0.74455878  0.73894534  0.86672407    -0.20100
C1162       C  0.76985790  0.74145389  0.84210917     0.36100
C1163       C  0.77184272  0.74861099  0.79779584    -0.26100
C1164       C  0.74909968  0.75356934  0.77787840     0.02500
C1165       C  0.72393550  0.75245527  0.80258796     0.27300
C1166       C  0.72190036  0.74520701  0.84683022    -0.25200
N1167       N  0.79337501  0.73690927  0.86221661    -0.82600
H1168       H  0.79113817  0.74994773  0.77858343     0.13100
C1169       C  0.75175847  0.75861009  0.73084664     0.02500
N1170       N  0.70056046  0.75803584  0.78242701    -0.81200
H1171       H  0.70249868  0.74353545  0.86569319     0.18000
C1172       C  0.74856370  0.73166718  0.70666999    -0.26000
C1173       C  0.75049177  0.73533090  0.66193518     0.36000
C1174       C  0.75562407  0.76673901  0.64104031    -0.20000
C1175       C  0.75880801  0.79368377  0.66555230    -0.25300
C1176       C  0.75709598  0.78987721  0.71022623     0.27400
H1177       H  0.74442125  0.70770698  0.72289596     0.13100
N1178       N  0.74684770  0.70740170  0.63784399    -0.82600
H1179       H  0.76302274  0.81776302  0.64971809     0.18000
N1180       N  0.76100795  0.81749677  0.73472084    -0.81200
H1181       H  0.74356425  0.68613205  0.65801325     0.33600
H1182       H  0.72962865  0.71124610  0.62368614     0.38100
H1183       H  0.76515599  0.83869857  0.71467877     0.33600
H1184       H  0.74315368  0.82165354  0.75400725     0.30300
H1185       H  0.68356793  0.75591744  0.80497779     0.33600
H1186       H  0.70132085  0.78230564  0.76967624     0.30300
H1187       H  0.79409908  0.75571822  0.88295796     0.38100
H1188       H  0.81032757  0.73958670  0.83964665     0.33600
C1189       C  0.75561408  0.76215873  0.13267863    -0.20100
C1190       C  0.77463903  0.74194997  0.15016204     0.36100
C1191       C  0.77301901  0.73639660  0.19478404    -0.26100
C1192       C  0.75255452  0.74973235  0.22259291     0.02500
C1193       C  0.73329175  0.76925432  0.20529220     0.27300
C1194       C  0.73516912  0.77547292  0.16085152    -0.25200
N1195       N  0.79583333  0.72754301  0.12295508    -0.82600
H1196       H  0.78793878  0.72160914  0.20805122     0.13100
C1197       C  0.75170003  0.74342358  0.26972570     0.02500
N1198       N  0.71172767  0.78252626  0.23294170    -0.81200
H1199       H  0.72029051  0.79070689  0.14820816     0.18000
C1200       C  0.75071082  0.77005046  0.29591002    -0.26000
C1201       C  0.74967404  0.76524763  0.34047805     0.36000
C1202       C  0.74980516  0.73301800  0.35948583    -0.20000
C1203       C  0.75129430  0.70640274  0.33315570    -0.25300
C1204       C  0.75194235  0.71121384  0.28868281     0.27400
H1205       H  0.75098361  0.79479687  0.28138676     0.13100
N1206       N  0.74889107  0.79301480  0.36631908    -0.82600
H1207       H  0.75118161  0.68159697  0.34747573     0.18000
N1208       N  0.75232391  0.68348297  0.26281407    -0.81200
H1209       H  0.74853964  0.81492689  0.34751018     0.33600
H1210       H  0.76653667  0.79324276  0.37974165     0.38100
H1211       H  0.75255702  0.66152623  0.28157263     0.33600
H1212       H  0.73462814  0.68354006  0.24951174     0.30300
H1213       H  0.69935959  0.79656904  0.21531958     0.33600
H1214       H  0.70029180  0.76280480  0.24801017     0.30300
H1215       H  0.78747928  0.70944587  0.10687503     0.38100
H1216       H  0.80899880  0.71538338  0.14103140     0.33600
C1217       C  0.56112867  0.93255275  0.50061428    -0.20100
C1218       C  0.56268556  0.90844693  0.53423920     0.36100
C1219       C  0.58453536  0.88737721  0.53228734    -0.26100
C1220       C  0.60516573  0.89033378  0.49822406     0.02500
C1221       C  0.60366481  0.91417763  0.46458658     0.27300
C1222       C  0.58146744  0.93470417  0.46581249    -0.25200
N1223       N  0.54196254  0.90488623  0.56983794    -0.82600
H1224       H  0.58574074  0.86879046  0.55786864     0.13100
C1225       C  0.62856336  0.86885687  0.49908152     0.02500
N1226       N  0.62493921  0.91789988  0.42985463    -0.81200
H1227       H  0.58047346  0.95320257  0.44006947     0.18000
C1228       C  0.63535415  0.84762821  0.46630451    -0.26000
C1229       C  0.65734330  0.82673903  0.46640081     0.36000
C1230       C  0.67265760  0.82688854  0.50050066    -0.20000
C1231       C  0.66562558  0.84834081  0.53319357    -0.25300
C1232       C  0.64389767  0.86931266  0.53277498     0.27400
H1233       H  0.62339303  0.84739286  0.44054873     0.13100
N1234       N  0.66406970  0.80565601  0.43198381    -0.82600
H1235       H  0.67716443  0.84892874  0.55942491     0.18000
N1236       N  0.63737839  0.89120763  0.56639146    -0.81200
H1237       H  0.65020499  0.80778492  0.41049725     0.33600
H1238       H  0.68214187  0.81397526  0.41511790     0.38100
H1239       H  0.65046153  0.88828011  0.58904403     0.33600
H1240       H  0.64000174  0.91520776  0.55292647     0.30300
H1241       H  0.62072533  0.93648992  0.40763163     0.33600
H1242       H  0.64176277  0.92554944  0.44226268     0.30300
H1243       H  0.54364698  0.92462326  0.58877691     0.38100
H1244       H  0.54485977  0.88382215  0.58909625     0.33600
C1245       C  0.94700015  0.92688338  0.50357543    -0.20100
C1246       C  0.93973567  0.90465743  0.53933447     0.36100
C1247       C  0.91853705  0.88266251  0.53909463    -0.26100
C1248       C  0.90447170  0.88251769  0.50411809     0.02500
C1249       C  0.91162173  0.90450377  0.46845077     0.27300
C1250       C  0.93311256  0.92606279  0.46822478    -0.25200
N1251       N  0.95360295  0.90470518  0.57591802    -0.82600
H1252       H  0.91246840  0.86608435  0.56672638     0.13100
C1253       C  0.88016086  0.86234498  0.50759228     0.02500
N1254       N  0.89601463  0.90624026  0.43382875    -0.81200
H1255       H  0.93825596  0.94333353  0.44101675     0.18000
C1256       C  0.85686932  0.87469842  0.52912975    -0.26000
C1257       C  0.83287268  0.85737638  0.53242780     0.36000
C1258       C  0.83204501  0.82734632  0.51255648    -0.20000
C1259       C  0.85571356  0.81439425  0.49231000    -0.25300
C1260       C  0.87988116  0.83159091  0.48983643     0.27400
H1261       H  0.85749208  0.89803702  0.54350164     0.13100
N1262       N  0.80945864  0.87000012  0.55640326    -0.82600
H1263       H  0.85529341  0.79109361  0.47782626     0.18000
N1264       N  0.90411762  0.81770054  0.47027465    -0.81200
H1265       H  0.81348976  0.89237675  0.56863016     0.33600
H1266       H  0.80394716  0.85349814  0.58267244     0.38100
H1267       H  0.90051849  0.79460723  0.45963401     0.33600
H1268       H  0.91125627  0.83261767  0.44322344     0.30300
H1269       H  0.90327782  0.92465216  0.41082563     0.33600
H1270       H  0.89811660  0.88414429  0.41888811     0.30300
H1271       H  0.97303542  0.89727874  0.56641908     0.38100
H1272       H  0.94534837  0.88740359  0.59971436     0.33600
C1273       C  0.83456903  0.67410678  0.50216537    -0.20100
C1274       C  0.85332715  0.67233134  0.46544926     0.36100
C1275       C  0.87552590  0.65211851  0.46695375    -0.26100
C1276       C  0.87910564  0.63324544  0.50425614     0.02500
C1277       C  0.86084337  0.63616288  0.54157853     0.27300
C1278       C  0.83892629  0.65701110  0.54025972    -0.25200
N1279       N  0.84959849  0.69092913  0.42673971    -0.82600
H1280       H  0.88989753  0.65059061  0.43867085     0.13100
C1281       C  0.90153972  0.60980123  0.50323211     0.02500
N1282       N  0.86407921  0.61708038  0.58016054    -0.81200
H1283       H  0.82443028  0.65855634  0.56839704     0.18000
C1284       C  0.91932735  0.61125654  0.53320998    -0.26000
C1285       C  0.94015258  0.58873417  0.53420671     0.36000
C1286       C  0.94375252  0.56482622  0.50357961    -0.20000
C1287       C  0.92644975  0.56404130  0.47278574    -0.25300
C1288       C  0.90512452  0.58584961  0.47272184     0.27400
H1289       H  0.91682252  0.62996585  0.55615228     0.13100
N1290       N  0.95804049  0.59080011  0.56536760    -0.82600
H1291       H  0.92911155  0.54564583  0.44941280     0.18000
N1292       N  0.88680586  0.58336534  0.44229504    -0.81200
H1293       H  0.95403555  0.61156196  0.58277564     0.33600
H1294       H  0.95416386  0.57066850  0.58734402     0.38100
H1295       H  0.89232736  0.56461434  0.42197757     0.33600
H1296       H  0.86834682  0.57664946  0.45923640     0.30300
H1297       H  0.84901296  0.62216002  0.60462499     0.33600
H1298       H  0.86199601  0.59234661  0.57439297     0.30300
H1299       H  0.85051282  0.71579653  0.43258782     0.38100
H1300       H  0.86510895  0.68678806  0.40256360     0.33600
C1301       C  0.55673753  0.56982840  0.49955490    -0.20100
C1302       C  0.56505880  0.58163043  0.53679951     0.36100
C1303       C  0.58619596  0.60427062  0.53280009    -0.26100
C1304       C  0.59922124  0.61539506  0.49268576     0.02500
C1305       C  0.59004622  0.60513650  0.45563872     0.27300
C1306       C  0.56901722  0.58252839  0.45944589    -0.25200
N1307       N  0.55256305  0.57032567  0.57854237    -0.82600
H1308       H  0.59337775  0.61210372  0.56122134     0.13100
C1309       C  0.62399043  0.63507219  0.48987108     0.02500
N1310       N  0.60249729  0.61730988  0.41422365    -0.81200
H1311       H  0.56260458  0.57432510  0.43063876     0.18000
C1312       C  0.64715614  0.62309992  0.46723352    -0.26000
C1313       C  0.67150321  0.63952483  0.46512609     0.36000
C1314       C  0.67284476  0.66887847  0.48642538    -0.20000
C1315       C  0.64943346  0.68113211  0.50858645    -0.25300
C1316       C  0.62505232  0.66448436  0.51062219     0.27400
H1317       H  0.64635090  0.60023520  0.45182577     0.13100
N1318       N  0.69465484  0.62652846  0.44089068    -0.82600
H1319       H  0.65018436  0.70357505  0.52489790     0.18000
N1320       N  0.60141060  0.67726071  0.53367541    -0.81200
H1321       H  0.68946728  0.60751661  0.42291866     0.33600
H1322       H  0.70627064  0.61574237  0.46264676     0.38100
H1323       H  0.60557600  0.69899231  0.54733377     0.33600
H1324       H  0.58837544  0.68332829  0.51167098     0.30300
H1325       H  0.59359232  0.60714022  0.39017569     0.33600
H1326       H  0.59925367  0.64259031  0.41156673     0.30300
H1327       H  0.55830681  0.54601171  0.58394018     0.38100
H1328       H  0.55965115  0.58345228  0.60199486     0.33600
C1329       C  0.66628253  0.82715949  0.99707006    -0.20100
C1330       C  0.64124290  0.81315109  0.99419417     0.36100
C1331       C  0.61926584  0.83388157  0.99268578    -0.26100
C1332       C  0.62201729  0.86795602  0.99398573     0.02500
C1333       C  0.64711837  0.88195685  0.99485943     0.27300
C1334       C  0.66897247  0.86144155  0.99634447    -0.25200
N1335       N  0.63786302  0.77813746  0.99529211    -0.82600
H1336       H  0.59978294  0.82345121  0.99195749     0.13100
C1337       C  0.59832243  0.88882105  0.99763850     0.02500
N1338       N  0.65011993  0.91695762  0.99524306    -0.81200
H1339       H  0.68824007  0.87232177  0.99757071     0.18000
C1340       C  0.59110421  0.90417860  0.03570353    -0.26000
C1341       C  0.56983555  0.92606910  0.03999778     0.36000
C1342       C  0.55499490  0.93188610  0.00567178    -0.20000
C1343       C  0.56216293  0.91597141  0.96775478    -0.25300
C1344       C  0.58390871  0.89479323  0.96322356     0.27400
H1345       H  0.60262984  0.89964660  0.06178257     0.13100
N1346       N  0.56391776  0.94305991  0.07847795    -0.82600
H1347       H  0.55100375  0.92043463  0.94124169     0.18000
N1348       N  0.59176661  0.87988854  0.92364102    -0.81200
H1349       H  0.57648498  0.93545289  0.10062057     0.33600
H1350       H  0.56802808  0.96796294  0.07067899     0.38100
H1351       H  0.57902217  0.88680592  0.90148836     0.33600
H1352       H  0.61050543  0.88920692  0.91104442     0.30300
H1353       H  0.66987007  0.92330846  0.99651814     0.33600
H1354       H  0.64531605  0.92731467  0.96631093     0.30300
H1355       H  0.64750799  0.77015024  0.96659943     0.38100
H1356       H  0.61786154  0.77198509  0.99616492     0.33600
C1357       C  0.93961123  0.92948708  0.00534272    -0.20100
C1358       C  0.92524392  0.91318086  0.04214026     0.36100
C1359       C  0.90453614  0.89145183  0.03752123    -0.26100
C1360       C  0.89745086  0.88613705  0.99731078     0.02500
C1361       C  0.91167332  0.90209092  0.96068821     0.27300
C1362       C  0.93261975  0.92338618  0.96502594    -0.25200
N1363       N  0.93129715  0.91887865  0.08406178    -0.82600
H1364       H  0.89323628  0.87934363  0.06558326     0.13100
C1365       C  0.87411451  0.86520186  0.99431442     0.02500
N1366       N  0.90463324  0.89672994  0.91924540    -0.81200
H1367       H  0.94328947  0.93561397  0.93652972     0.18000
C1368       C  0.85206080  0.87944925  0.97854522    -0.26000
C1369       C  0.82884229  0.86112537  0.97791601     0.36000
C1370       C  0.82770780  0.82797504  0.99357573    -0.20400
C1371       C  0.85008856  0.81332713  0.00772958    -0.25300
C1372       C  0.87333998  0.83171729  0.00839588     0.27400
H1373       H  0.85281102  0.90514958  0.96757381     0.13100
N1374       N  0.80631632  0.87603401  0.96177552    -0.82600
H1375       H  0.84905996  0.78787910  0.01978168     0.18000
N1376       N  0.89603122  0.81675126  0.02384281    -0.81200
H1377       H  0.81035793  0.90059829  0.95166436     0.33600
H1378       H  0.80313251  0.86400345  0.93473720     0.38100
H1379       H  0.89215842  0.79203582  0.03327665     0.33600
H1380       H  0.91139505  0.81726612  0.99836274     0.30300
H1381       H  0.91688130  0.91053336  0.89552844     0.33600
H1382       H  0.90813868  0.87205720  0.91358394     0.30300
H1383       H  0.92540428  0.94277292  0.09058604     0.38100
H1384       H  0.91997661  0.90341103  0.10708745     0.33600
C1385       C  0.82833236  0.67002044  0.99777887    -0.20100
C1386       C  0.85315674  0.68555598  0.99804834     0.36100
C1387       C  0.87584446  0.66616607  0.00064827    -0.26100
C1388       C  0.87421569  0.63181353  0.00198408     0.02500
C1389       C  0.84976287  0.61642764  0.99987500     0.27300
C1390       C  0.82709919  0.63557620  0.99844260    -0.25200
N1391       N  0.85537384  0.72074307  0.99505636    -0.82600
H1392       H  0.89485218  0.67779519  0.00163516     0.13100
C1393       C  0.89795705  0.61161955  0.00607769     0.02500
N1394       N  0.84813654  0.58130955  0.99895160    -0.81200
H1395       H  0.80829908  0.62335345  0.99777643     0.18000
C1396       C  0.89775491  0.58973088  0.04198026    -0.26000
C1397       C  0.91800563  0.56672326  0.04479716     0.36000
C1398       C  0.93920822  0.56608895  0.01114468    -0.20000
C1399       C  0.93989150  0.58903450  0.97602481    -0.25300
C1400       C  0.91940144  0.61171509  0.97304948     0.27400
H1401       H  0.88112138  0.58983558  0.06719559     0.13100
N1402       N  0.91652372  0.54336591  0.08091782    -0.82600
H1403       H  0.95625820  0.58889712  0.95037480     0.18000
N1404       N  0.91991739  0.63418402  0.93619269    -0.81200
H1405       H  0.89990680  0.54766738  0.10301271     0.33600
H1406       H  0.91377235  0.52012995  0.07001461     0.38100
H1407       H  0.93719667  0.63120748  0.91494755     0.33600
H1408       H  0.90407877  0.62811145  0.92027505     0.30300
H1409       H  0.82866997  0.57378525  0.99756329     0.33600
H1410       H  0.85938490  0.57470228  0.97073575     0.30300
H1411       H  0.85077263  0.72907198  0.96509497     0.38100
H1412       H  0.87492325  0.72809954  0.99611936     0.33600
C1413       C  0.66483679  0.67164238  0.99768704    -0.20100
C1414       C  0.64288631  0.67788095  0.02864295     0.36100
C1415       C  0.61967067  0.65881410  0.03095820    -0.26100
C1416       C  0.61814462  0.63333097  0.00384054     0.02500
C1417       C  0.63994559  0.62670761  0.97349087     0.27300
C1418       C  0.66291804  0.64608495  0.97041856    -0.25200
N1419       N  0.64431339  0.70287969  0.05824172    -0.82600
H1420       H  0.60282616  0.66336852  0.05454920     0.13100
C1421       C  0.59404070  0.61262076  0.00849449     0.02500
N1422       N  0.63874618  0.59997957  0.94632999    -0.81200
H1423       H  0.67953909  0.64083907  0.94678391     0.18000
C1424       C  0.57751143  0.61498105  0.97659690    -0.26000
C1425       C  0.55579047  0.59360221  0.97792699     0.36000
C1426       C  0.55101912  0.56887863  0.01137724    -0.20000
C1427       C  0.56689372  0.56764545  0.04434758    -0.25300
C1428       C  0.58847256  0.58925307  0.04312453     0.27400
H1429       H  0.58180352  0.63334429  0.95037849     0.13100
N1430       N  0.53859273  0.59691028  0.94551810    -0.82600
H1431       H  0.56316345  0.54888854  0.07018788     0.18000
N1432       N  0.60521763  0.58701857  0.07620569    -0.81200
H1433       H  0.54492431  0.61623580  0.92328202     0.33600
H1434       H  0.51984703  0.60326872  0.96033389     0.38100
H1435       H  0.59833789  0.56864861  0.09951976     0.33600
H1436       H  0.62399757  0.57981496  0.06253776     0.30300
H1437       H  0.65643418  0.59840156  0.92560529     0.33600
H1438       H  0.63701284  0.57822231  0.96575076     0.30300
H1439       H  0.65816119  0.69530552  0.07827316     0.38100
H1440       H  0.62623141  0.70482109  0.07787295     0.33600
loop_ 
_geom_bond_atom_site_label_1 
_geom_bond_atom_site_label_2 
_geom_bond_distance 
_geom_bond_site_symmetry_2 
_ccdc_geom_bond_type 
O1           C11   1.282       .  A
O1        Ni1089   1.920   1_445  S
O2           C12   1.282       .  A
O2           Ni9   1.922       .  S
O3           C13   1.281       .  A
O3         Ni729   1.916   1_455  S
O4           C14   1.281       .  A
O4         Ni369   1.916   1_545  S
O5           C14   1.280   1_556  A
O5         Ni730   1.908       .  S
O6           C13   1.280   1_556  A
O6         Ni370   1.910   1_455  S
O7           C12   1.281   1_556  A
O7        Ni1090   1.911       .  S
O8           C11   1.280   1_556  A
O8          Ni10   1.908   1_455  S
Ni9        O1081   1.920       .  S
Ni9         O723   1.916       .  S
Ni9         O364   1.916       .  S
Ni9       Ni1090   2.385   1_554  S
Ni10        O725   1.908       .  S
Ni10        O366   1.909   1_645  S
Ni10       O1087   1.911   1_545  S
Ni10      Ni1089   2.385   1_546  S
C11         C346   1.479       .  S
C12         C277   1.492       .  S
C13         C262   1.480       .  S
C14         C318   1.479       .  S
O15          C25   1.280       .  A
O15       Ni1103   1.915   1_445  S
O16          C26   1.281       .  A
O16         Ni23   1.916       .  S
O17          C27   1.280       .  A
O17        Ni743   1.912   1_455  S
O18          C28   1.280       .  A
O18        Ni383   1.913   1_545  S
O19          C28   1.282       .  A
O19        Ni744   1.918       .  S
O20          C27   1.282       .  A
O20        Ni384   1.919       .  S
O21          C26   1.281       .  A
O21       Ni1104   1.914       .  S
O22          C25   1.282       .  A
O22         Ni24   1.914       .  S
Ni23       O1095   1.916       .  S
Ni23        O737   1.912       .  S
Ni23        O378   1.912       .  S
Ni23      Ni1104   2.384       .  S
Ni24        O739   1.918   1_455  S
Ni24        O380   1.919   1_545  S
Ni24       O1101   1.916   1_445  S
Ni24      Ni1103   2.384   1_445  S
C25         C221   1.490       .  S
C26         C165   1.484       .  S
C27         C137   1.481       .  S
C28         C206   1.479       .  S
O29          C50   1.270       .  A
O29         Ni35   1.920       .  S
O30          C39   1.268   1_554  A
O30         Ni53   1.907   1_554  S
O31         Ni35   1.916   1_556  S
O31         Ni53   1.909       .  S
O31         Ni47   1.907       .  S
O31          H54   0.967       .  S
C32          O49   1.265   1_556  A
C32          O41   1.272       .  A
C32         C333   1.489       .  S
O33          C39   1.270       .  A
O33         Ni52   1.913       .  S
O34          C36   1.269       .  A
O34         Ni52   1.903       .  S
Ni35         O38   1.923       .  S
Ni35         O40   1.907       .  S
C36          O46   1.277       .  A
C36          C81   1.482       .  S
O37          C43   1.269       .  A
O37         Ni53   1.906       .  S
O38          C43   1.272   1_554  A
C39         C305   1.485       .  S
O40          C42   1.270       .  A
O41         Ni52   1.934       .  S
C42          O48   1.276       .  A
C42         C109   1.500       .  S
C43         C290   1.472       .  S
H44          O45   0.966       .  S
O45         Ni53   1.925   1_554  S
O45         Ni47   1.910   1_554  S
O45         Ni52   1.919   1_554  S
O46         Ni47   1.949       .  S
Ni47         O51   1.899       .  S
Ni47         O49   1.903   1_556  S
O48         Ni53   1.946   1_554  S
C50          O51   1.264   1_554  A
C50         C249   1.476   1_554  S
O55          C76   1.270       .  A
O55         Ni61   1.919       .  S
O56          C65   1.267       .  A
O56         Ni79   1.907       .  S
O57         Ni61   1.900       .  S
O57         Ni79   1.900       .  S
O57         Ni73   1.909       .  S
O57          H80   0.966       .  S
C58          O75   1.277       .  A
C58          O67   1.277       .  A
C58         C234   1.488       .  S
O59          C65   1.274       .  A
O59         Ni78   1.936       .  S
O60          C62   1.269       .  A
O60         Ni78   1.907       .  S
Ni61         O64   1.911       .  S
Ni61         O66   1.910       .  S
C62          O72   1.274       .  A
C62         C122   1.490       .  S
O63          C69   1.279       .  A
O63         Ni79   1.926       .  S
O64          C69   1.275       .  A
C65         C193   1.474       .  S
O66          C68   1.269       .  A
O67         Ni78   1.926       .  S
C68          O74   1.272       .  A
C68          C94   1.486       .  S
C69         C178   1.486       .  S
H70          O71   0.966       .  S
O71         Ni79   1.909       .  S
O71         Ni73   1.906       .  S
O71         Ni78   1.903       .  S
O72         Ni73   1.935       .  S
Ni73         O77   1.914       .  S
Ni73         O75   1.915       .  S
O74         Ni79   1.929       .  S
C76          O77   1.269       .  A
C76         C150   1.488       .  S
C81          C82   1.414       .  A
C81          C86   1.405       .  A
C82          C83   1.408       .  A
C82          N87   1.438       .  S
C83          C84   1.401       .  A
C83          H88   1.084       .  S
C84          C89   1.481       .  S
C84          C85   1.408       .  A
C85          C86   1.406       .  A
C85          N90   1.437       .  S
C86          H91   1.084       .  S
N87         H107   1.046       .  S
N87         H108   1.046       .  S
C89          C92   1.401       .  A
C89          C96   1.407       .  A
N90         H105   1.046       .  S
N90         H106   1.045       .  S
C92          C93   1.407       .  A
C92          H97   1.084       .  S
C93          C94   1.414       .  A
C93          N98   1.438       .  S
C94          C95   1.408       .  A
C95          C96   1.407       .  A
C95          H99   1.084       .  S
C96         N100   1.438       .  S
N98         H101   1.046       .  S
N98         H102   1.046       .  S
N100        H103   1.046       .  S
N100        H104   1.045       .  S
C109        C110   1.420       .  A
C109        C114   1.410       .  A
C110        C111   1.411       .  A
C110        N115   1.438       .  S
C111        C112   1.405       .  A
C111        H116   1.083       .  S
C112        C117   1.496       .  S
C112        C113   1.411       .  A
C113        C114   1.407       .  A
C113        N118   1.438       .  S
C114        H119   1.083       .  S
N115        H135   1.046       .  S
N115        H136   1.046       .  S
C117        C120   1.406       .  A
C117        C124   1.412       .  A
N118        H133   1.046       .  S
N118        H134   1.046       .  S
C120        C121   1.409       .  A
C120        H125   1.083       .  S
C121        C122   1.413       .  A
C121        N126   1.437       .  S
C122        C123   1.407       .  A
C123        C124   1.408       .  A
C123        H127   1.084       .  S
C124        N128   1.438       .  S
N126        H129   1.046       .  S
N126        H130   1.046       .  S
N128        H131   1.046       .  S
N128        H132   1.046       .  S
C137        C138   1.415       .  A
C137        C142   1.406       .  A
C138        C139   1.404       .  A
C138        N143   1.438       .  S
C139        C140   1.402       .  A
C139        H144   1.084       .  S
C140        C145   1.482       .  S
C140        C141   1.409       .  A
C141        C142   1.405       .  A
C141        N146   1.438       .  S
C142        H147   1.084       .  S
N143        H163   1.045       .  S
N143        H164   1.046       .  S
C145        C148   1.403       .  A
C145        C152   1.408       .  A
N146        H161   1.046       .  S
N146        H162   1.046       .  S
C148        C149   1.408       .  A
C148        H153   1.084       .  S
C149        C150   1.416       .  A
C149        N154   1.438       .  S
C150        C151   1.408       .  A
C151        C152   1.401       .  A
C151        H155   1.083       .  S
C152        N156   1.439       .  S
N154        H157   1.046       .  S
N154        H158   1.046       .  S
N156        H159   1.046       .  S
N156        H160   1.046       .  S
C165        C166   1.416       .  A
C165        C170   1.407       .  A
C166        C167   1.406       .  A
C166        N171   1.438       .  S
C167        C168   1.400       .  A
C167        H172   1.084       .  S
C168        C173   1.474       .  S
C168        C169   1.406       .  A
C169        C170   1.403       .  A
C169        N174   1.438       .  S
C170        H175   1.083       .  S
N171        H191   1.046       .  S
N171        H192   1.046       .  S
C173        C176   1.396       .  A
C173        C180   1.407       .  A
N174        H189   1.046       .  S
N174        H190   1.045       .  S
C176        C177   1.400       .  A
C176        H181   1.084       .  S
C177        C178   1.419       .  A
C177        N182   1.439       .  S
C178        C179   1.408       .  A
C179        C180   1.408       .  A
C179        H183   1.083       .  S
C180        N184   1.437       .  S
N182        H185   1.046       .  S
N182        H186   1.046       .  S
N184        H187   1.046       .  S
N184        H188   1.045       .  S
C193        C194   1.409       .  A
C193        C198   1.402       .  A
C194        C195   1.404       .  A
C194        N199   1.438       .  S
C195        C196   1.404       .  A
C195        H200   1.084       .  S
C196        C201   1.489       .  S
C196        C197   1.415       .  A
C197        C198   1.408       .  A
C197        N202   1.438       .  S
C198        H203   1.084       .  S
N199        H219   1.046       .  S
N199        H220   1.046       .  S
C201        C204   1.403       .  A
C201        C208   1.413       .  A
N202        H217   1.046       .  S
N202        H218   1.046       .  S
C204        C205   1.406       .  A
C204        H209   1.083       .  S
C205        C206   1.414       .  A
C205        N210   1.438       .  S
C206        C207   1.403       .  A
C207        C208   1.405       .  A
C207        H211   1.084       .  S
C208        N212   1.438       .  S
N210        H213   1.046       .  S
N210        H214   1.045       .  S
N212        H215   1.046       .  S
N212        H216   1.046       .  S
C221        C222   1.419       .  A
C221        C226   1.407       .  A
C222        C223   1.407       .  A
C222        N227   1.438       .  S
C223        C224   1.402       .  A
C223        H228   1.084       .  S
C224        C229   1.485       .  S
C224        C225   1.409       .  A
C225        C226   1.402       .  A
C225        N230   1.438       .  S
C226        H231   1.083       .  S
N227        H247   1.045       .  S
N227        H248   1.046       .  S
C229        C232   1.401       .  A
C229        C236   1.409       .  A
N230        H245   1.046       .  S
N230        H246   1.045       .  S
C232        C233   1.402       .  A
C232        H237   1.084       .  S
C233        C234   1.418       .  A
C233        N238   1.438       .  S
C234        C235   1.408       .  A
C235        C236   1.407       .  A
C235        H239   1.083       .  S
C236        N240   1.438       .  S
N238        H241   1.046       .  S
N238        H242   1.045       .  S
N240        H243   1.046       .  S
N240        H244   1.046       .  S
C249        C250   1.414       .  A
C249        C254   1.405       .  A
C250        C251   1.407       .  A
C250        N255   1.438       .  S
C251        C252   1.402       .  A
C251        H256   1.084       .  S
C252        C257   1.473       .  S
C252        C253   1.405       .  A
C253        C254   1.397       .  A
C253        N258   1.438       .  S
C254        H259   1.084       .  S
N255        H275   1.045       .  S
N255        H276   1.046       .  S
C257        C260   1.400   1_556  A
C257        C264   1.405       .  A
N258        H273   1.046       .  S
N258        H274   1.046       .  S
C260        C261   1.402       .  A
C260        H265   1.084       .  S
C261        C262   1.415       .  A
C261        N266   1.438       .  S
C262        C263   1.407   1_554  A
C263        C264   1.403       .  A
C263        H267   1.083       .  S
C264        N268   1.438       .  S
N266        H269   1.046       .  S
N266        H270   1.046       .  S
N268        H271   1.046       .  S
N268        H272   1.046       .  S
C277        C278   1.419       .  A
C277        C282   1.410   1_554  A
C278        C279   1.407       .  A
C278        N283   1.438       .  S
C279        C280   1.401   1_554  A
C279        H284   1.084       .  S
C280        C285   1.482       .  S
C280        C281   1.406       .  A
C281        C282   1.403       .  A
C281        N286   1.438       .  S
C282        H287   1.083       .  S
N283        H303   1.046       .  S
N283        H304   1.046       .  S
C285        C288   1.402       .  A
C285        C292   1.411   1_556  A
N286        H301   1.046       .  S
N286        H302   1.045       .  S
C288        C289   1.403       .  A
C288        H293   1.084       .  S
C289        C290   1.411       .  A
C289        N294   1.438       .  S
C290        C291   1.401   1_556  A
C291        C292   1.406       .  A
C291        H295   1.083       .  S
C292        N296   1.437       .  S
N294        H297   1.046       .  S
N294        H298   1.046       .  S
N296        H299   1.046       .  S
N296        H300   1.046   1_554  S
C305        C306   1.416       .  A
C305        C310   1.406       .  A
C306        C307   1.409   1_556  A
C306        N311   1.438       .  S
C307        C308   1.403       .  A
C307        H312   1.084       .  S
C308        C313   1.479       .  S
C308        C309   1.407       .  A
C309        C310   1.398   1_554  A
C309        N314   1.439   1_554  S
C310        H315   1.083       .  S
N311        H331   1.046       .  S
N311        H332   1.046       .  S
C313        C316   1.402       .  A
C313        C320   1.407   1_554  A
N314        H329   1.046       .  S
N314        H330   1.046       .  S
C316        C317   1.403       .  A
C316        H321   1.084       .  S
C317        C318   1.414       .  A
C317        N322   1.438       .  S
C318        C319   1.407   1_554  A
C319        C320   1.404       .  A
C319        H323   1.084       .  S
C320        N324   1.438       .  S
N322        H325   1.046       .  S
N322        H326   1.046       .  S
N324        H327   1.046       .  S
N324        H328   1.046       .  S
C333        C334   1.419   1_556  A
C333        C338   1.408       .  A
C334        C335   1.407       .  A
C334        N339   1.438       .  S
C335        C336   1.400       .  A
C335        H340   1.084       .  S
C336        C341   1.477       .  S
C336        C337   1.406   1_554  A
C337        C338   1.402       .  A
C337        N342   1.438       .  S
C338        H343   1.083       .  S
N339        H359   1.046       .  S
N339        H360   1.046       .  S
C341        C344   1.400   1_554  A
C341        C348   1.408       .  A
N342        H357   1.046       .  S
N342        H358   1.046       .  S
C344        C345   1.404       .  A
C344        H349   1.084       .  S
C345        C346   1.415   1_556  A
C345        N350   1.438       .  S
C346        C347   1.404       .  A
C347        C348   1.405       .  A
C347        H351   1.084       .  S
C348        N352   1.438       .  S
N350        H353   1.046       .  S
N350        H354   1.046       .  S
N352        H355   1.046       .  S
N352        H356   1.046       .  S
O361        C371   1.282       .  A
O361       Ni729   1.920   1_455  S
O362        C372   1.282       .  A
O362       Ni369   1.922       .  S
O363        C373   1.281       .  A
O363      Ni1089   1.916   1_455  S
O364        C374   1.281       .  A
O365        C374   1.280   1_556  A
O365      Ni1090   1.908       .  S
O366        C373   1.280   1_556  A
O367        C372   1.281   1_556  A
O367       Ni730   1.911   1_565  S
O368        C371   1.280   1_556  A
O368       Ni370   1.908   1_455  S
Ni369       O721   1.920   1_565  S
Ni369      O1083   1.916       .  S
Ni369      Ni730   2.385   1_564  S
Ni370      O1085   1.908       .  S
Ni370       O727   1.911       .  S
Ni370      Ni729   2.385   1_556  S
C371        C706   1.479       .  S
C372        C637   1.492       .  S
C373        C622   1.481       .  S
C374        C678   1.480       .  S
O375        C385   1.281       .  A
O375       Ni743   1.916   1_455  S
O376        C386   1.281       .  A
O376       Ni383   1.916       .  S
O377        C387   1.280       .  A
O377      Ni1103   1.913   1_455  S
O378        C388   1.280       .  A
O379        C388   1.282       .  A
O379      Ni1104   1.919       .  S
O380        C387   1.282       .  A
O381        C386   1.282       .  A
O381       Ni744   1.916   1_565  S
O382        C385   1.282       .  A
O382       Ni384   1.913       .  S
Ni383       O735   1.915   1_565  S
Ni383      O1097   1.913       .  S
Ni383      Ni744   2.384   1_565  S
Ni384      O1099   1.919   1_455  S
Ni384       O741   1.914   1_455  S
Ni384      Ni743   2.384   1_455  S
C385        C581   1.490       .  S
C386        C525   1.484       .  S
C387        C497   1.483       .  S
C388        C566   1.480       .  S
O389        C410   1.270       .  A
O389       Ni395   1.920       .  S
O390        C399   1.268   1_554  A
O390       Ni413   1.908   1_554  S
O391       Ni395   1.916   1_556  S
O391       Ni413   1.910       .  S
O391       Ni407   1.907       .  S
O391        H414   0.967       .  S
C392        O409   1.265   1_556  A
C392        O401   1.272       .  A
C392        C693   1.489       .  S
O393        C399   1.270       .  A
O393       Ni412   1.914       .  S
O394        C396   1.269       .  A
O394       Ni412   1.904       .  S
Ni395       O398   1.923       .  S
Ni395       O400   1.907       .  S
C396        O406   1.277       .  A
C396        C441   1.481       .  S
O397        C403   1.269       .  A
O397       Ni413   1.906       .  S
O398        C403   1.272   1_554  A
C399        C665   1.485       .  S
O400        C402   1.270       .  A
O401       Ni412   1.934       .  S
C402        O408   1.276       .  A
C402        C469   1.500       .  S
C403        C650   1.471       .  S
H404        O405   0.966       .  S
O405       Ni413   1.925   1_554  S
O405       Ni407   1.910   1_554  S
O405       Ni412   1.919   1_554  S
O406       Ni407   1.948       .  S
Ni407       O411   1.900       .  S
Ni407       O409   1.902   1_556  S
O408       Ni413   1.945   1_554  S
C410        O411   1.264   1_554  A
C410        C609   1.477   1_554  S
O415        C436   1.270       .  A
O415       Ni421   1.919       .  S
O416        C425   1.267       .  A
O416       Ni439   1.906       .  S
O417       Ni421   1.901       .  S
O417       Ni439   1.900       .  S
O417       Ni433   1.911       .  S
O417        H440   0.966       .  S
C418        O435   1.277       .  A
C418        O427   1.277       .  A
C418        C594   1.489       .  S
O419        C425   1.273       .  A
O419       Ni438   1.936       .  S
O420        C422   1.269       .  A
O420       Ni438   1.908       .  S
Ni421       O424   1.913       .  S
Ni421       O426   1.909       .  S
C422        O432   1.274       .  A
C422        C482   1.490       .  S
O423        C429   1.278       .  A
O423       Ni439   1.924       .  S
O424        C429   1.276       .  A
C425        C553   1.473       .  S
O426        C428   1.268       .  A
O427       Ni438   1.925       .  S
C428        O434   1.272       .  A
C428        C454   1.486       .  S
C429        C538   1.482       .  S
H430        O431   0.966       .  S
O431       Ni439   1.909       .  S
O431       Ni433   1.906       .  S
O431       Ni438   1.903       .  S
O432       Ni433   1.935       .  S
Ni433       O437   1.915       .  S
Ni433       O435   1.917       .  S
O434       Ni439   1.930       .  S
C436        O437   1.269       .  A
C436        C510   1.489       .  S
C441        C442   1.414       .  A
C441        C446   1.404       .  A
C442        C443   1.408       .  A
C442        N447   1.438       .  S
C443        C444   1.401       .  A
C443        H448   1.084       .  S
C444        C449   1.481       .  S
C444        C445   1.408       .  A
C445        C446   1.406       .  A
C445        N450   1.437       .  S
C446        H451   1.084       .  S
N447        H467   1.046       .  S
N447        H468   1.046       .  S
C449        C452   1.402       .  A
C449        C456   1.407       .  A
N450        H465   1.046       .  S
N450        H466   1.045       .  S
C452        C453   1.408       .  A
C452        H457   1.084       .  S
C453        C454   1.414       .  A
C453        N458   1.438       .  S
C454        C455   1.408       .  A
C455        C456   1.407       .  A
C455        H459   1.084       .  S
C456        N460   1.438       .  S
N458        H461   1.046       .  S
N458        H462   1.046       .  S
N460        H463   1.046       .  S
N460        H464   1.045       .  S
C469        C470   1.420       .  A
C469        C474   1.410       .  A
C470        C471   1.411       .  A
C470        N475   1.438       .  S
C471        C472   1.404       .  A
C471        H476   1.083       .  S
C472        C477   1.496       .  S
C472        C473   1.411       .  A
C473        C474   1.407       .  A
C473        N478   1.438       .  S
C474        H479   1.083       .  S
N475        H495   1.046       .  S
N475        H496   1.046       .  S
C477        C480   1.406       .  A
C477        C484   1.412       .  A
N478        H493   1.046       .  S
N478        H494   1.046       .  S
C480        C481   1.409       .  A
C480        H485   1.083       .  S
C481        C482   1.413       .  A
C481        N486   1.438       .  S
C482        C483   1.407       .  A
C483        C484   1.408       .  A
C483        H487   1.084       .  S
C484        N488   1.438       .  S
N486        H489   1.046       .  S
N486        H490   1.046       .  S
N488        H491   1.046       .  S
N488        H492   1.046       .  S
C497        C498   1.416       .  A
C497        C502   1.407       .  A
C498        C499   1.404       .  A
C498        N503   1.438       .  S
C499        C500   1.401       .  A
C499        H504   1.084       .  S
C500        C505   1.482       .  S
C500        C501   1.409       .  A
C501        C502   1.405       .  A
C501        N506   1.438       .  S
C502        H507   1.084       .  S
N503        H523   1.045       .  S
N503        H524   1.046       .  S
C505        C508   1.403       .  A
C505        C512   1.407       .  A
N506        H521   1.046       .  S
N506        H522   1.046       .  S
C508        C509   1.408       .  A
C508        H513   1.084       .  S
C509        C510   1.417       .  A
C509        N514   1.438       .  S
C510        C511   1.409       .  A
C511        C512   1.400       .  A
C511        H515   1.083       .  S
C512        N516   1.439       .  S
N514        H517   1.046       .  S
N514        H518   1.046       .  S
N516        H519   1.046       .  S
N516        H520   1.046       .  S
C525        C526   1.416       .  A
C525        C530   1.406       .  A
C526        C527   1.406       .  A
C526        N531   1.438       .  S
C527        C528   1.400       .  A
C527        H532   1.084       .  S
C528        C533   1.475       .  S
C528        C529   1.407       .  A
C529        C530   1.404       .  A
C529        N534   1.439       .  S
C530        H535   1.083       .  S
N531        H551   1.046       .  S
N531        H552   1.046       .  S
C533        C536   1.397       .  A
C533        C540   1.409       .  A
N534        H549   1.046       .  S
N534        H550   1.044       .  S
C536        C537   1.401       .  A
C536        H541   1.084       .  S
C537        C538   1.417       .  A
C537        N542   1.439       .  S
C538        C539   1.407       .  A
C539        C540   1.408       .  A
C539        H543   1.084       .  S
C540        N544   1.438       .  S
N542        H545   1.046       .  S
N542        H546   1.046       .  S
N544        H547   1.046       .  S
N544        H548   1.044       .  S
C553        C554   1.409       .  A
C553        C558   1.401       .  A
C554        C555   1.404       .  A
C554        N559   1.438       .  S
C555        C556   1.404       .  A
C555        H560   1.084       .  S
C556        C561   1.489       .  S
C556        C557   1.415       .  A
C557        C558   1.407       .  A
C557        N562   1.438       .  S
C558        H563   1.084       .  S
N559        H579   1.046       .  S
N559        H580   1.046       .  S
C561        C564   1.403       .  A
C561        C568   1.413       .  A
N562        H577   1.046       .  S
N562        H578   1.046       .  S
C564        C565   1.406       .  A
C564        H569   1.083       .  S
C565        C566   1.415       .  A
C565        N570   1.438       .  S
C566        C567   1.403       .  A
C567        C568   1.405       .  A
C567        H571   1.084       .  S
C568        N572   1.438       .  S
N570        H573   1.046       .  S
N570        H574   1.045       .  S
N572        H575   1.046       .  S
N572        H576   1.046       .  S
C581        C582   1.419       .  A
C581        C586   1.408       .  A
C582        C583   1.407       .  A
C582        N587   1.438       .  S
C583        C584   1.402       .  A
C583        H588   1.084       .  S
C584        C589   1.485       .  S
C584        C585   1.409       .  A
C585        C586   1.402       .  A
C585        N590   1.438       .  S
C586        H591   1.083       .  S
N587        H607   1.045       .  S
N587        H608   1.046       .  S
C589        C592   1.401       .  A
C589        C596   1.410       .  A
N590        H605   1.046       .  S
N590        H606   1.045       .  S
C592        C593   1.402       .  A
C592        H597   1.084       .  S
C593        C594   1.418       .  A
C593        N598   1.438       .  S
C594        C595   1.408       .  A
C595        C596   1.408       .  A
C595        H599   1.083       .  S
C596        N600   1.438       .  S
N598        H601   1.046       .  S
N598        H602   1.045       .  S
N600        H603   1.046       .  S
N600        H604   1.045       .  S
C609        C610   1.414       .  A
C609        C614   1.405       .  A
C610        C611   1.408       .  A
C610        N615   1.438       .  S
C611        C612   1.402       .  A
C611        H616   1.084       .  S
C612        C617   1.473       .  S
C612        C613   1.405       .  A
C613        C614   1.397       .  A
C613        N618   1.438       .  S
C614        H619   1.084       .  S
N615        H635   1.045       .  S
N615        H636   1.046       .  S
C617        C620   1.400   1_556  A
C617        C624   1.405       .  A
N618        H633   1.046       .  S
N618        H634   1.046       .  S
C620        C621   1.402       .  A
C620        H625   1.084       .  S
C621        C622   1.415       .  A
C621        N626   1.438       .  S
C622        C623   1.408   1_554  A
C623        C624   1.403       .  A
C623        H627   1.083       .  S
C624        N628   1.438       .  S
N626        H629   1.046       .  S
N626        H630   1.046       .  S
N628        H631   1.046       .  S
N628        H632   1.046       .  S
C637        C638   1.419       .  A
C637        C642   1.410   1_554  A
C638        C639   1.407       .  A
C638        N643   1.438       .  S
C639        C640   1.401   1_554  A
C639        H644   1.084       .  S
C640        C645   1.481       .  S
C640        C641   1.406       .  A
C641        C642   1.403       .  A
C641        N646   1.438       .  S
C642        H647   1.083       .  S
N643        H663   1.046       .  S
N643        H664   1.046       .  S
C645        C648   1.402       .  A
C645        C652   1.411   1_556  A
N646        H661   1.046       .  S
N646        H662   1.046       .  S
C648        C649   1.403       .  A
C648        H653   1.084       .  S
C649        C650   1.411       .  A
C649        N654   1.438       .  S
C650        C651   1.401   1_556  A
C651        C652   1.406       .  A
C651        H655   1.083       .  S
C652        N656   1.437       .  S
N654        H657   1.046       .  S
N654        H658   1.046       .  S
N656        H659   1.046       .  S
N656        H660   1.045   1_554  S
C665        C666   1.416       .  A
C665        C670   1.407       .  A
C666        C667   1.409   1_556  A
C666        N671   1.438       .  S
C667        C668   1.403       .  A
C667        H672   1.084       .  S
C668        C673   1.479       .  S
C668        C669   1.407   1_554  A
C669        C670   1.398       .  A
C669        N674   1.439       .  S
C670        H675   1.083       .  S
N671        H691   1.046       .  S
N671        H692   1.046       .  S
C673        C676   1.402       .  A
C673        C680   1.407   1_554  A
N674        H689   1.046       .  S
N674        H690   1.046       .  S
C676        C677   1.403       .  A
C676        H681   1.084       .  S
C677        C678   1.414       .  A
C677        N682   1.438       .  S
C678        C679   1.407   1_554  A
C679        C680   1.404       .  A
C679        H683   1.084       .  S
C680        N684   1.438       .  S
N682        H685   1.046       .  S
N682        H686   1.046       .  S
N684        H687   1.046       .  S
N684        H688   1.046       .  S
C693        C694   1.419   1_556  A
C693        C698   1.408       .  A
C694        C695   1.407       .  A
C694        N699   1.438       .  S
C695        C696   1.400       .  A
C695        H700   1.084       .  S
C696        C701   1.477       .  S
C696        C697   1.406   1_554  A
C697        C698   1.402       .  A
C697        N702   1.438       .  S
C698        H703   1.083       .  S
N699        H719   1.046       .  S
N699        H720   1.046       .  S
C701        C704   1.400   1_554  A
C701        C708   1.408       .  A
N702        H717   1.046       .  S
N702        H718   1.046       .  S
C704        C705   1.404       .  A
C704        H709   1.084       .  S
C705        C706   1.414   1_556  A
C705        N710   1.438       .  S
C706        C707   1.404       .  A
C707        C708   1.405       .  A
C707        H711   1.084       .  S
C708        N712   1.438       .  S
N710        H713   1.046       .  S
N710        H714   1.046       .  S
N712        H715   1.046       .  S
N712        H716   1.046       .  S
O721        C731   1.282       .  A
O722        C732   1.282       .  A
O722       Ni729   1.922       .  S
O723        C733   1.281       .  A
O724        C734   1.281       .  A
O724      Ni1089   1.916   1_545  S
O725        C734   1.280   1_556  A
O726        C733   1.280   1_556  A
O726      Ni1090   1.910       .  S
O727        C732   1.281   1_556  A
O728        C731   1.280   1_556  A
O728       Ni730   1.908       .  S
Ni729      O1084   1.916       .  S
Ni730      O1086   1.909   1_545  S
C731       C1066   1.479       .  S
C732        C997   1.492       .  S
C733        C982   1.480       .  S
C734       C1038   1.479       .  S
O735        C745   1.280       .  A
O736        C746   1.281       .  A
O736       Ni743   1.916       .  S
O737        C747   1.280       .  A
O738        C748   1.280       .  A
O738      Ni1103   1.913   1_545  S
O739        C748   1.282       .  A
O740        C747   1.282       .  A
O740      Ni1104   1.919       .  S
O741        C746   1.281       .  A
O742        C745   1.282       .  A
O742       Ni744   1.914       .  S
Ni743      O1098   1.912       .  S
Ni744      O1100   1.919   1_545  S
C745        C941   1.490       .  S
C746        C885   1.484       .  S
C747        C857   1.481       .  S
C748        C926   1.479       .  S
O749        C770   1.270       .  A
O749       Ni755   1.920       .  S
O750        C759   1.268   1_554  A
O750       Ni773   1.907   1_554  S
O751       Ni755   1.916   1_556  S
O751       Ni773   1.909       .  S
O751       Ni767   1.907       .  S
O751        H774   0.967       .  S
C752        O769   1.265   1_556  A
C752        O761   1.272       .  A
C752       C1053   1.489       .  S
O753        C759   1.270       .  A
O753       Ni772   1.913       .  S
O754        C756   1.269       .  A
O754       Ni772   1.903       .  S
Ni755       O758   1.923       .  S
Ni755       O760   1.907       .  S
C756        O766   1.277       .  A
C756        C801   1.481       .  S
O757        C763   1.269       .  A
O757       Ni773   1.906       .  S
O758        C763   1.272   1_554  A
C759       C1025   1.485       .  S
O760        C762   1.270       .  A
O761       Ni772   1.934       .  S
C762        O768   1.276       .  A
C762        C829   1.500       .  S
C763       C1010   1.472       .  S
H764        O765   0.966       .  S
O765       Ni773   1.925   1_554  S
O765       Ni767   1.910   1_554  S
O765       Ni772   1.919   1_554  S
O766       Ni767   1.949       .  S
Ni767       O771   1.899       .  S
Ni767       O769   1.903   1_556  S
O768       Ni773   1.946   1_554  S
C770        O771   1.264   1_554  A
C770        C969   1.476   1_554  S
O775        C796   1.270       .  A
O775       Ni781   1.919       .  S
O776        C785   1.267       .  A
O776       Ni799   1.907       .  S
O777       Ni781   1.900       .  S
O777       Ni799   1.900       .  S
O777       Ni793   1.909       .  S
O777        H800   0.966       .  S
C778        O795   1.277       .  A
C778        O787   1.277       .  A
C778        C954   1.488       .  S
O779        C785   1.274       .  A
O779       Ni798   1.936       .  S
O780        C782   1.269       .  A
O780       Ni798   1.907       .  S
Ni781       O784   1.911       .  S
Ni781       O786   1.910       .  S
C782        O792   1.274       .  A
C782        C842   1.490       .  S
O783        C789   1.279       .  A
O783       Ni799   1.926       .  S
O784        C789   1.275       .  A
C785        C913   1.474       .  S
O786        C788   1.269       .  A
O787       Ni798   1.926       .  S
C788        O794   1.272       .  A
C788        C814   1.486       .  S
C789        C898   1.486       .  S
H790        O791   0.966       .  S
O791       Ni799   1.909       .  S
O791       Ni793   1.906       .  S
O791       Ni798   1.903       .  S
O792       Ni793   1.935       .  S
Ni793       O797   1.914       .  S
Ni793       O795   1.915       .  S
O794       Ni799   1.929       .  S
C796        O797   1.269       .  A
C796        C870   1.488       .  S
C801        C802   1.414       .  A
C801        C806   1.405       .  A
C802        C803   1.408       .  A
C802        N807   1.438       .  S
C803        C804   1.401       .  A
C803        H808   1.084       .  S
C804        C809   1.481       .  S
C804        C805   1.408       .  A
C805        C806   1.406       .  A
C805        N810   1.437       .  S
C806        H811   1.084       .  S
N807        H827   1.046       .  S
N807        H828   1.046       .  S
C809        C812   1.401       .  A
C809        C816   1.407       .  A
N810        H825   1.046       .  S
N810        H826   1.045       .  S
C812        C813   1.407       .  A
C812        H817   1.084       .  S
C813        C814   1.414       .  A
C813        N818   1.438       .  S
C814        C815   1.408       .  A
C815        C816   1.407       .  A
C815        H819   1.084       .  S
C816        N820   1.438       .  S
N818        H821   1.046       .  S
N818        H822   1.046       .  S
N820        H823   1.046       .  S
N820        H824   1.045       .  S
C829        C830   1.420       .  A
C829        C834   1.410       .  A
C830        C831   1.411       .  A
C830        N835   1.438       .  S
C831        C832   1.405       .  A
C831        H836   1.083       .  S
C832        C837   1.496       .  S
C832        C833   1.411       .  A
C833        C834   1.407       .  A
C833        N838   1.438       .  S
C834        H839   1.083       .  S
N835        H855   1.046       .  S
N835        H856   1.046       .  S
C837        C840   1.406       .  A
C837        C844   1.412       .  A
N838        H853   1.046       .  S
N838        H854   1.046       .  S
C840        C841   1.409       .  A
C840        H845   1.083       .  S
C841        C842   1.413       .  A
C841        N846   1.437       .  S
C842        C843   1.407       .  A
C843        C844   1.408       .  A
C843        H847   1.084       .  S
C844        N848   1.438       .  S
N846        H849   1.046       .  S
N846        H850   1.046       .  S
N848        H851   1.046       .  S
N848        H852   1.046       .  S
C857        C858   1.415       .  A
C857        C862   1.406       .  A
C858        C859   1.404       .  A
C858        N863   1.438       .  S
C859        C860   1.402       .  A
C859        H864   1.084       .  S
C860        C865   1.482       .  S
C860        C861   1.409       .  A
C861        C862   1.405       .  A
C861        N866   1.438       .  S
C862        H867   1.084       .  S
N863        H883   1.045       .  S
N863        H884   1.046       .  S
C865        C868   1.403       .  A
C865        C872   1.408       .  A
N866        H881   1.046       .  S
N866        H882   1.046       .  S
C868        C869   1.408       .  A
C868        H873   1.084       .  S
C869        C870   1.416       .  A
C869        N874   1.438       .  S
C870        C871   1.408       .  A
C871        C872   1.401       .  A
C871        H875   1.083       .  S
C872        N876   1.439       .  S
N874        H877   1.046       .  S
N874        H878   1.046       .  S
N876        H879   1.046       .  S
N876        H880   1.046       .  S
C885        C886   1.416       .  A
C885        C890   1.407       .  A
C886        C887   1.406       .  A
C886        N891   1.438       .  S
C887        C888   1.400       .  A
C887        H892   1.084       .  S
C888        C893   1.474       .  S
C888        C889   1.406       .  A
C889        C890   1.403       .  A
C889        N894   1.438       .  S
C890        H895   1.083       .  S
N891        H911   1.046       .  S
N891        H912   1.046       .  S
C893        C896   1.396       .  A
C893        C900   1.407       .  A
N894        H909   1.046       .  S
N894        H910   1.045       .  S
C896        C897   1.400       .  A
C896        H901   1.084       .  S
C897        C898   1.419       .  A
C897        N902   1.439       .  S
C898        C899   1.408       .  A
C899        C900   1.408       .  A
C899        H903   1.083       .  S
C900        N904   1.437       .  S
N902        H905   1.046       .  S
N902        H906   1.046       .  S
N904        H907   1.046       .  S
N904        H908   1.045       .  S
C913        C914   1.409       .  A
C913        C918   1.402       .  A
C914        C915   1.404       .  A
C914        N919   1.438       .  S
C915        C916   1.404       .  A
C915        H920   1.084       .  S
C916        C921   1.489       .  S
C916        C917   1.415       .  A
C917        C918   1.408       .  A
C917        N922   1.438       .  S
C918        H923   1.084       .  S
N919        H939   1.046       .  S
N919        H940   1.046       .  S
C921        C924   1.403       .  A
C921        C928   1.413       .  A
N922        H937   1.046       .  S
N922        H938   1.046       .  S
C924        C925   1.406       .  A
C924        H929   1.083       .  S
C925        C926   1.414       .  A
C925        N930   1.438       .  S
C926        C927   1.403       .  A
C927        C928   1.405       .  A
C927        H931   1.084       .  S
C928        N932   1.438       .  S
N930        H933   1.046       .  S
N930        H934   1.045       .  S
N932        H935   1.046       .  S
N932        H936   1.046       .  S
C941        C942   1.419       .  A
C941        C946   1.407       .  A
C942        C943   1.407       .  A
C942        N947   1.438       .  S
C943        C944   1.402       .  A
C943        H948   1.084       .  S
C944        C949   1.485       .  S
C944        C945   1.409       .  A
C945        C946   1.402       .  A
C945        N950   1.438       .  S
C946        H951   1.083       .  S
N947        H967   1.045       .  S
N947        H968   1.046       .  S
C949        C952   1.401       .  A
C949        C956   1.409       .  A
N950        H965   1.046       .  S
N950        H966   1.045       .  S
C952        C953   1.402       .  A
C952        H957   1.084       .  S
C953        C954   1.418       .  A
C953        N958   1.438       .  S
C954        C955   1.408       .  A
C955        C956   1.407       .  A
C955        H959   1.083       .  S
C956        N960   1.438       .  S
N958        H961   1.046       .  S
N958        H962   1.045       .  S
N960        H963   1.046       .  S
N960        H964   1.046       .  S
C969        C970   1.414       .  A
C969        C974   1.405       .  A
C970        C971   1.407       .  A
C970        N975   1.438       .  S
C971        C972   1.402       .  A
C971        H976   1.084       .  S
C972        C977   1.473       .  S
C972        C973   1.405       .  A
C973        C974   1.397       .  A
C973        N978   1.438       .  S
C974        H979   1.084       .  S
N975        H995   1.045       .  S
N975        H996   1.046       .  S
C977        C980   1.400   1_556  A
C977        C984   1.405       .  A
N978        H993   1.046       .  S
N978        H994   1.046       .  S
C980        C981   1.402       .  A
C980        H985   1.084       .  S
C981        C982   1.415       .  A
C981        N986   1.438       .  S
C982        C983   1.407   1_554  A
C983        C984   1.403       .  A
C983        H987   1.083       .  S
C984        N988   1.438       .  S
N986        H989   1.046       .  S
N986        H990   1.046       .  S
N988        H991   1.046       .  S
N988        H992   1.046       .  S
C997        C998   1.419       .  A
C997       C1002   1.410   1_554  A
C998        C999   1.407       .  A
C998       N1003   1.438       .  S
C999       C1000   1.401   1_554  A
C999       H1004   1.084       .  S
C1000      C1005   1.482       .  S
C1000      C1001   1.406       .  A
C1001      C1002   1.403       .  A
C1001      N1006   1.438       .  S
C1002      H1007   1.083       .  S
N1003      H1023   1.046       .  S
N1003      H1024   1.046       .  S
C1005      C1008   1.402       .  A
C1005      C1012   1.411   1_556  A
N1006      H1021   1.046       .  S
N1006      H1022   1.045       .  S
C1008      C1009   1.403       .  A
C1008      H1013   1.084       .  S
C1009      C1010   1.411       .  A
C1009      N1014   1.438       .  S
C1010      C1011   1.401   1_556  A
C1011      C1012   1.406       .  A
C1011      H1015   1.083       .  S
C1012      N1016   1.437       .  S
N1014      H1017   1.046       .  S
N1014      H1018   1.046       .  S
N1016      H1019   1.046       .  S
N1016      H1020   1.046   1_554  S
C1025      C1026   1.416       .  A
C1025      C1030   1.406       .  A
C1026      C1027   1.409   1_556  A
C1026      N1031   1.438       .  S
C1027      C1028   1.403       .  A
C1027      H1032   1.084       .  S
C1028      C1033   1.479       .  S
C1028      C1029   1.407       .  A
C1029      C1030   1.398   1_554  A
C1029      N1034   1.439   1_554  S
C1030      H1035   1.083       .  S
N1031      H1051   1.046       .  S
N1031      H1052   1.046       .  S
C1033      C1036   1.402       .  A
C1033      C1040   1.407   1_554  A
N1034      H1049   1.046       .  S
N1034      H1050   1.046       .  S
C1036      C1037   1.403       .  A
C1036      H1041   1.084       .  S
C1037      C1038   1.414       .  A
C1037      N1042   1.438       .  S
C1038      C1039   1.407   1_554  A
C1039      C1040   1.404       .  A
C1039      H1043   1.084       .  S
C1040      N1044   1.438       .  S
N1042      H1045   1.046       .  S
N1042      H1046   1.046       .  S
N1044      H1047   1.046       .  S
N1044      H1048   1.046       .  S
C1053      C1054   1.419   1_556  A
C1053      C1058   1.408       .  A
C1054      C1055   1.407       .  A
C1054      N1059   1.438       .  S
C1055      C1056   1.400       .  A
C1055      H1060   1.084       .  S
C1056      C1061   1.477       .  S
C1056      C1057   1.406   1_554  A
C1057      C1058   1.402       .  A
C1057      N1062   1.438       .  S
C1058      H1063   1.083       .  S
N1059      H1079   1.046       .  S
N1059      H1080   1.046       .  S
C1061      C1064   1.400   1_554  A
C1061      C1068   1.408       .  A
N1062      H1077   1.046       .  S
N1062      H1078   1.046       .  S
C1064      C1065   1.404       .  A
C1064      H1069   1.084       .  S
C1065      C1066   1.415   1_556  A
C1065      N1070   1.438       .  S
C1066      C1067   1.404       .  A
C1067      C1068   1.405       .  A
C1067      H1071   1.084       .  S
C1068      N1072   1.438       .  S
N1070      H1073   1.046       .  S
N1070      H1074   1.046       .  S
N1072      H1075   1.046       .  S
N1072      H1076   1.046       .  S
O1081      C1091   1.282       .  A
O1082      C1092   1.282       .  A
O1082     Ni1089   1.922       .  S
O1083      C1093   1.281       .  A
O1084      C1094   1.281       .  A
O1085      C1094   1.280   1_556  A
O1086      C1093   1.280   1_556  A
O1087      C1092   1.281   1_556  A
O1088      C1091   1.280   1_556  A
O1088     Ni1090   1.908       .  S
C1091      C1426   1.479       .  S
C1092      C1357   1.492       .  S
C1093      C1342   1.481       .  S
C1094      C1398   1.480       .  S
O1095      C1105   1.281       .  A
O1096      C1106   1.281       .  A
O1096     Ni1103   1.916       .  S
O1097      C1107   1.280       .  A
O1098      C1108   1.280       .  A
O1099      C1108   1.282       .  A
O1100      C1107   1.282       .  A
O1101      C1106   1.282       .  A
O1102      C1105   1.282       .  A
O1102     Ni1104   1.913       .  S
C1105      C1301   1.490       .  S
C1106      C1245   1.484       .  S
C1107      C1217   1.483       .  S
C1108      C1286   1.480       .  S
O1109      C1130   1.270       .  A
O1109     Ni1115   1.920       .  S
O1110      C1119   1.268   1_554  A
O1110     Ni1133   1.908   1_554  S
O1111     Ni1115   1.916   1_556  S
O1111     Ni1133   1.910       .  S
O1111     Ni1127   1.907       .  S
O1111      H1134   0.967       .  S
C1112      O1129   1.265   1_556  A
C1112      O1121   1.272       .  A
C1112      C1413   1.489       .  S
O1113      C1119   1.270       .  A
O1113     Ni1132   1.914       .  S
O1114      C1116   1.269       .  A
O1114     Ni1132   1.904       .  S
Ni1115     O1118   1.923       .  S
Ni1115     O1120   1.907       .  S
C1116      O1126   1.277       .  A
C1116      C1161   1.481       .  S
O1117      C1123   1.269       .  A
O1117     Ni1133   1.906       .  S
O1118      C1123   1.272   1_554  A
C1119      C1385   1.485       .  S
O1120      C1122   1.270       .  A
O1121     Ni1132   1.934       .  S
C1122      O1128   1.276       .  A
C1122      C1189   1.500       .  S
C1123      C1370   1.471       .  S
H1124      O1125   0.966       .  S
O1125     Ni1133   1.925   1_554  S
O1125     Ni1127   1.910   1_554  S
O1125     Ni1132   1.919   1_554  S
O1126     Ni1127   1.948       .  S
Ni1127     O1131   1.900       .  S
Ni1127     O1129   1.902   1_556  S
O1128     Ni1133   1.945   1_554  S
C1130      O1131   1.264   1_554  A
C1130      C1329   1.477   1_554  S
O1135      C1156   1.270       .  A
O1135     Ni1141   1.919       .  S
O1136      C1145   1.267       .  A
O1136     Ni1159   1.906       .  S
O1137     Ni1141   1.901       .  S
O1137     Ni1159   1.900       .  S
O1137     Ni1153   1.911       .  S
O1137      H1160   0.966       .  S
C1138      O1155   1.277       .  A
C1138      O1147   1.277       .  A
C1138      C1314   1.489       .  S
O1139      C1145   1.273       .  A
O1139     Ni1158   1.936       .  S
O1140      C1142   1.269       .  A
O1140     Ni1158   1.908       .  S
Ni1141     O1144   1.913       .  S
Ni1141     O1146   1.909       .  S
C1142      O1152   1.274       .  A
C1142      C1202   1.490       .  S
O1143      C1149   1.278       .  A
O1143     Ni1159   1.924       .  S
O1144      C1149   1.276       .  A
C1145      C1273   1.473       .  S
O1146      C1148   1.268       .  A
O1147     Ni1158   1.925       .  S
C1148      O1154   1.272       .  A
C1148      C1174   1.486       .  S
C1149      C1258   1.482       .  S
H1150      O1151   0.966       .  S
O1151     Ni1159   1.909       .  S
O1151     Ni1153   1.906       .  S
O1151     Ni1158   1.903       .  S
O1152     Ni1153   1.935       .  S
Ni1153     O1157   1.915       .  S
Ni1153     O1155   1.917       .  S
O1154     Ni1159   1.930       .  S
C1156      O1157   1.269       .  A
C1156      C1230   1.489       .  S
C1161      C1162   1.414       .  A
C1161      C1166   1.404       .  A
C1162      C1163   1.408       .  A
C1162      N1167   1.438       .  S
C1163      C1164   1.401       .  A
C1163      H1168   1.084       .  S
C1164      C1169   1.481       .  S
C1164      C1165   1.408       .  A
C1165      C1166   1.406       .  A
C1165      N1170   1.437       .  S
C1166      H1171   1.084       .  S
N1167      H1187   1.046       .  S
N1167      H1188   1.046       .  S
C1169      C1172   1.402       .  A
C1169      C1176   1.407       .  A
N1170      H1185   1.046       .  S
N1170      H1186   1.045       .  S
C1172      C1173   1.408       .  A
C1172      H1177   1.084       .  S
C1173      C1174   1.414       .  A
C1173      N1178   1.438       .  S
C1174      C1175   1.408       .  A
C1175      C1176   1.407       .  A
C1175      H1179   1.084       .  S
C1176      N1180   1.438       .  S
N1178      H1181   1.046       .  S
N1178      H1182   1.046       .  S
N1180      H1183   1.046       .  S
N1180      H1184   1.045       .  S
C1189      C1190   1.420       .  A
C1189      C1194   1.410       .  A
C1190      C1191   1.411       .  A
C1190      N1195   1.438       .  S
C1191      C1192   1.404       .  A
C1191      H1196   1.083       .  S
C1192      C1197   1.496       .  S
C1192      C1193   1.411       .  A
C1193      C1194   1.407       .  A
C1193      N1198   1.438       .  S
C1194      H1199   1.083       .  S
N1195      H1215   1.046       .  S
N1195      H1216   1.046       .  S
C1197      C1200   1.406       .  A
C1197      C1204   1.412       .  A
N1198      H1213   1.046       .  S
N1198      H1214   1.046       .  S
C1200      C1201   1.409       .  A
C1200      H1205   1.083       .  S
C1201      C1202   1.413       .  A
C1201      N1206   1.438       .  S
C1202      C1203   1.407       .  A
C1203      C1204   1.408       .  A
C1203      H1207   1.084       .  S
C1204      N1208   1.438       .  S
N1206      H1209   1.046       .  S
N1206      H1210   1.046       .  S
N1208      H1211   1.046       .  S
N1208      H1212   1.046       .  S
C1217      C1218   1.416       .  A
C1217      C1222   1.407       .  A
C1218      C1219   1.404       .  A
C1218      N1223   1.438       .  S
C1219      C1220   1.401       .  A
C1219      H1224   1.084       .  S
C1220      C1225   1.482       .  S
C1220      C1221   1.409       .  A
C1221      C1222   1.405       .  A
C1221      N1226   1.438       .  S
C1222      H1227   1.084       .  S
N1223      H1243   1.045       .  S
N1223      H1244   1.046       .  S
C1225      C1228   1.403       .  A
C1225      C1232   1.407       .  A
N1226      H1241   1.046       .  S
N1226      H1242   1.046       .  S
C1228      C1229   1.408       .  A
C1228      H1233   1.084       .  S
C1229      C1230   1.417       .  A
C1229      N1234   1.438       .  S
C1230      C1231   1.409       .  A
C1231      C1232   1.400       .  A
C1231      H1235   1.083       .  S
C1232      N1236   1.439       .  S
N1234      H1237   1.046       .  S
N1234      H1238   1.046       .  S
N1236      H1239   1.046       .  S
N1236      H1240   1.046       .  S
C1245      C1246   1.416       .  A
C1245      C1250   1.406       .  A
C1246      C1247   1.406       .  A
C1246      N1251   1.438       .  S
C1247      C1248   1.400       .  A
C1247      H1252   1.084       .  S
C1248      C1253   1.475       .  S
C1248      C1249   1.407       .  A
C1249      C1250   1.404       .  A
C1249      N1254   1.439       .  S
C1250      H1255   1.083       .  S
N1251      H1271   1.046       .  S
N1251      H1272   1.046       .  S
C1253      C1256   1.397       .  A
C1253      C1260   1.409       .  A
N1254      H1269   1.046       .  S
N1254      H1270   1.044       .  S
C1256      C1257   1.401       .  A
C1256      H1261   1.084       .  S
C1257      C1258   1.417       .  A
C1257      N1262   1.439       .  S
C1258      C1259   1.407       .  A
C1259      C1260   1.408       .  A
C1259      H1263   1.084       .  S
C1260      N1264   1.438       .  S
N1262      H1265   1.046       .  S
N1262      H1266   1.046       .  S
N1264      H1267   1.046       .  S
N1264      H1268   1.044       .  S
C1273      C1274   1.409       .  A
C1273      C1278   1.401       .  A
C1274      C1275   1.404       .  A
C1274      N1279   1.438       .  S
C1275      C1276   1.404       .  A
C1275      H1280   1.084       .  S
C1276      C1281   1.489       .  S
C1276      C1277   1.415       .  A
C1277      C1278   1.407       .  A
C1277      N1282   1.438       .  S
C1278      H1283   1.084       .  S
N1279      H1299   1.046       .  S
N1279      H1300   1.046       .  S
C1281      C1284   1.403       .  A
C1281      C1288   1.413       .  A
N1282      H1297   1.046       .  S
N1282      H1298   1.046       .  S
C1284      C1285   1.406       .  A
C1284      H1289   1.083       .  S
C1285      C1286   1.415       .  A
C1285      N1290   1.438       .  S
C1286      C1287   1.403       .  A
C1287      C1288   1.405       .  A
C1287      H1291   1.084       .  S
C1288      N1292   1.438       .  S
N1290      H1293   1.046       .  S
N1290      H1294   1.045       .  S
N1292      H1295   1.046       .  S
N1292      H1296   1.046       .  S
C1301      C1302   1.419       .  A
C1301      C1306   1.408       .  A
C1302      C1303   1.407       .  A
C1302      N1307   1.438       .  S
C1303      C1304   1.402       .  A
C1303      H1308   1.084       .  S
C1304      C1309   1.485       .  S
C1304      C1305   1.409       .  A
C1305      C1306   1.402       .  A
C1305      N1310   1.438       .  S
C1306      H1311   1.083       .  S
N1307      H1327   1.045       .  S
N1307      H1328   1.046       .  S
C1309      C1312   1.401       .  A
C1309      C1316   1.410       .  A
N1310      H1325   1.046       .  S
N1310      H1326   1.045       .  S
C1312      C1313   1.402       .  A
C1312      H1317   1.084       .  S
C1313      C1314   1.418       .  A
C1313      N1318   1.438       .  S
C1314      C1315   1.408       .  A
C1315      C1316   1.408       .  A
C1315      H1319   1.083       .  S
C1316      N1320   1.438       .  S
N1318      H1321   1.046       .  S
N1318      H1322   1.045       .  S
N1320      H1323   1.046       .  S
N1320      H1324   1.045       .  S
C1329      C1330   1.414       .  A
C1329      C1334   1.405       .  A
C1330      C1331   1.408       .  A
C1330      N1335   1.438       .  S
C1331      C1332   1.402       .  A
C1331      H1336   1.084       .  S
C1332      C1337   1.473       .  S
C1332      C1333   1.405       .  A
C1333      C1334   1.397       .  A
C1333      N1338   1.438       .  S
C1334      H1339   1.084       .  S
N1335      H1355   1.045       .  S
N1335      H1356   1.046       .  S
C1337      C1340   1.400   1_556  A
C1337      C1344   1.405       .  A
N1338      H1353   1.046       .  S
N1338      H1354   1.046       .  S
C1340      C1341   1.402       .  A
C1340      H1345   1.084       .  S
C1341      C1342   1.415       .  A
C1341      N1346   1.438       .  S
C1342      C1343   1.408   1_554  A
C1343      C1344   1.403       .  A
C1343      H1347   1.083       .  S
C1344      N1348   1.438       .  S
N1346      H1349   1.046       .  S
N1346      H1350   1.046       .  S
N1348      H1351   1.046       .  S
N1348      H1352   1.046       .  S
C1357      C1358   1.419       .  A
C1357      C1362   1.410   1_554  A
C1358      C1359   1.407       .  A
C1358      N1363   1.438       .  S
C1359      C1360   1.401   1_554  A
C1359      H1364   1.084       .  S
C1360      C1365   1.481       .  S
C1360      C1361   1.406       .  A
C1361      C1362   1.403       .  A
C1361      N1366   1.438       .  S
C1362      H1367   1.083       .  S
N1363      H1383   1.046       .  S
N1363      H1384   1.046       .  S
C1365      C1368   1.402       .  A
C1365      C1372   1.411   1_556  A
N1366      H1381   1.046       .  S
N1366      H1382   1.046       .  S
C1368      C1369   1.403       .  A
C1368      H1373   1.084       .  S
C1369      C1370   1.411       .  A
C1369      N1374   1.438       .  S
C1370      C1371   1.401   1_556  A
C1371      C1372   1.406       .  A
C1371      H1375   1.083       .  S
C1372      N1376   1.437       .  S
N1374      H1377   1.046       .  S
N1374      H1378   1.046       .  S
N1376      H1379   1.046       .  S
N1376      H1380   1.045   1_554  S
C1385      C1386   1.416       .  A
C1385      C1390   1.407       .  A
C1386      C1387   1.409   1_556  A
C1386      N1391   1.438       .  S
C1387      C1388   1.403       .  A
C1387      H1392   1.084       .  S
C1388      C1393   1.479       .  S
C1388      C1389   1.407   1_554  A
C1389      C1390   1.398       .  A
C1389      N1394   1.439       .  S
C1390      H1395   1.083       .  S
N1391      H1411   1.046       .  S
N1391      H1412   1.046       .  S
C1393      C1396   1.402       .  A
C1393      C1400   1.407   1_554  A
N1394      H1409   1.046       .  S
N1394      H1410   1.046       .  S
C1396      C1397   1.403       .  A
C1396      H1401   1.084       .  S
C1397      C1398   1.414       .  A
C1397      N1402   1.438       .  S
C1398      C1399   1.407   1_554  A
C1399      C1400   1.404       .  A
C1399      H1403   1.084       .  S
C1400      N1404   1.438       .  S
N1402      H1405   1.046       .  S
N1402      H1406   1.046       .  S
N1404      H1407   1.046       .  S
N1404      H1408   1.046       .  S
C1413      C1414   1.419   1_556  A
C1413      C1418   1.408       .  A
C1414      C1415   1.407       .  A
C1414      N1419   1.438       .  S
C1415      C1416   1.400       .  A
C1415      H1420   1.084       .  S
C1416      C1421   1.477       .  S
C1416      C1417   1.406   1_554  A
C1417      C1418   1.402       .  A
C1417      N1422   1.438       .  S
C1418      H1423   1.083       .  S
N1419      H1439   1.046       .  S
N1419      H1440   1.046       .  S
C1421      C1424   1.400   1_554  A
C1421      C1428   1.408       .  A
N1422      H1437   1.046       .  S
N1422      H1438   1.046       .  S
C1424      C1425   1.404       .  A
C1424      H1429   1.084       .  S
C1425      C1426   1.414   1_556  A
C1425      N1430   1.438       .  S
C1426      C1427   1.404       .  A
C1427      C1428   1.405       .  A
C1427      H1431   1.084       .  S
C1428      N1432   1.438       .  S
N1430      H1433   1.046       .  S
N1430      H1434   1.046       .  S
N1432      H1435   1.046       .  S
N1432      H1436   1.046       .  S
