geometry optimzed in LAMMPS
_audit_creation_date              2020-11-30 
_audit_creation_method            'lammps2cif' 
_symmetry_space_group_name_H-M    'P1' 
_symmetry_Int_Tables_number       1 
_symmetry_cell_setting            triclinic 
loop_ 
_symmetry_equiv_pos_as_xyz 
  x,y,z 
_cell_length_a                    38.92362489 
_cell_length_b                    38.04334237313955 
_cell_length_c                    45.44566006376924 
_cell_angle_alpha                 89.55247137877821 
_cell_angle_beta                  90.85428665941362 
_cell_angle_gamma                 119.711804858788 
loop_ 
_atom_site_label 
_atom_site_type_symbol 
_atom_site_fract_x 
_atom_site_fract_y 
_atom_site_fract_z 
_atom_site_charge 
C1          C  0.65962001  0.54678914  0.99953723     0.86000
C2          C  0.70014276  0.55052756  0.00433340    -0.54200
C3          C  0.70268576  0.51845674  0.99411752     0.08900
C4          C  0.66467890  0.48559395  0.97892661     0.19900
C5          C  0.65247481  0.54023229  0.96552137    -0.54900
C6          C  0.65564173  0.50832384  0.95501180     0.09000
C7          C  0.62965582  0.50531700  0.01244330    -0.54500
C8          C  0.63040414  0.47298763  0.00042484     0.09600
H9          H  0.72530320  0.57705608  0.01387055     0.14100
H10         H  0.66758316  0.45975898  0.97077923    -0.00100
H11         H  0.64280752  0.55610612  0.95098475     0.14400
H12         H  0.60541581  0.50149985  0.02619600     0.14200
C13         C  0.40821332  0.29282134  0.00452011     0.86000
C14         C  0.45064354  0.32742097  0.01084116    -0.54200
C15         C  0.47975433  0.32405615  0.99709151     0.08900
C16         C  0.46369692  0.28571346  0.97832040     0.19900
C17         C  0.40568028  0.29352613  0.97023925    -0.54900
C18         C  0.43456496  0.28887995  0.95674525     0.09000
C19         C  0.40835367  0.25383570  0.01181787    -0.54500
C20         C  0.43711071  0.25018142  0.99835869     0.09600
H21         H  0.45685494  0.35438319  0.02313978     0.14100
H22         H  0.48729060  0.28206462  0.96777857    -0.00100
H23         H  0.38456698  0.29843614  0.95772168     0.14400
H24         H  0.38627989  0.23006611  0.02554988     0.14200
C25         C  0.40507609  0.02669615  0.00418876     0.86000
C26         C  0.40662772  0.06617086  0.01251617    -0.54200
C27         C  0.43584782  0.09928148  0.99945640     0.08900
C28         C  0.46164731  0.09058426  0.97893408     0.19900
C29         C  0.40231796  0.02537226  0.96981217    -0.54900
C30         C  0.43216571  0.05960438  0.95679845     0.09000
C31         C  0.44684031  0.03289563  0.00968736    -0.54500
C32         C  0.47632066  0.06629234  0.99689820     0.09600
H33         H  0.38471996  0.06750428  0.02630910     0.14100
H34         H  0.48607102  0.11836152  0.96900899    -0.00100
H35         H  0.38111167  0.99972177  0.95695518     0.14400
H36         H  0.45234609  0.01084462  0.02100624     0.14200
C37         C  0.65596534  0.02589095  0.00115797     0.86000
C38         C  0.62097596  0.03265353  0.00676376    -0.54200
C39         C  0.62324128  0.06552862  0.99361815     0.08900
C40         C  0.66057112  0.08973500  0.97540933     0.19900
C41         C  0.65649072  0.02468423  0.96658114    -0.54900
C42         C  0.65977145  0.05901197  0.95343255     0.09000
C43         C  0.69324585  0.06580854  0.00928385    -0.54500
C44         C  0.69588000  0.09910932  0.99558938     0.09600
H45         H  0.59479651  0.01140678  0.01879860     0.14100
H46         H  0.66210053  0.11704673  0.96518498    -0.00100
H47         H  0.65237446  0.99931498  0.95348260     0.14400
H48         H  0.71697847  0.06715914  0.02298737     0.14200
C49         C  0.91549610  0.28849499  0.99418095     0.86000
C50         C  0.87630137  0.25221792  0.00370796    -0.54200
C51         C  0.84354889  0.25032625  0.99121130     0.08900
C52         C  0.85254148  0.28568146  0.97051503     0.19900
C53         C  0.91376381  0.28560149  0.95962431    -0.54900
C54         C  0.87967662  0.28296582  0.94758925     0.09000
C55         C  0.91180181  0.32630098  0.99942345    -0.54500
C56         C  0.87918548  0.32498950  0.98750726     0.09600
H57         H  0.87485724  0.22803012  0.01747262     0.14100
H58         H  0.82555701  0.28478106  0.96128406    -0.00100
H59         H  0.93682954  0.28712476  0.94585270     0.14400
H60         H  0.93463732  0.35324539  0.01043885     0.14200
C61         C  0.92348355  0.55274627  0.98355139     0.86000
C62         C  0.91861292  0.51129173  0.99199455    -0.54200
C63         C  0.88362294  0.47906944  0.98383111     0.08900
C64         C  0.85522622  0.49071939  0.96867130     0.19900
C65         C  0.91383798  0.54976970  0.95002478    -0.54900
C66         C  0.87852387  0.51649967  0.94243685     0.09000
C67         C  0.88743421  0.55240296  0.99774405    -0.54500
C68         C  0.85188916  0.52092689  0.98898883     0.09600
H69         H  0.94215394  0.50752401  0.00196446     0.14100
H70         H  0.82616056  0.46408673  0.96293739    -0.00100
H71         H  0.93324219  0.57139561  0.93386903     0.14400
H72         H  0.88813503  0.57525963  0.01179603     0.14200
C73         C  0.58045677  0.61451284  0.06111434     0.86000
C74         C  0.57951588  0.65321789  0.05325103    -0.54200
C75         C  0.54736160  0.65427408  0.06324086     0.08900
C76         C  0.51885660  0.61676769  0.08088613     0.19900
C77         C  0.57700809  0.61241584  0.09544716    -0.54900
C78         C  0.54535617  0.61526170  0.10550285     0.09000
C79         C  0.54039790  0.57897124  0.05101575    -0.54500
C80         C  0.50820551  0.57935049  0.06175961     0.09600
H81         H  0.60377506  0.67898422  0.04247899     0.14100
H82         H  0.49248900  0.61790935  0.08861371    -0.00100
H83         H  0.59568359  0.60766578  0.11074132     0.14400
H84         H  0.53787867  0.55331969  0.03882079     0.14200
C85         C  0.06227049  0.35269471  0.05846894     0.86000
C86         C  0.09953471  0.35617725  0.04392485    -0.54200
C87         C  0.13440553  0.38564404  0.05554372     0.08900
C88         C  0.12931151  0.41172059  0.07905334     0.19900
C89         C  0.06943762  0.34976773  0.09183796    -0.54900
C90         C  0.10326191  0.38184560  0.10272935     0.09000
C91         C  0.06758216  0.39543028  0.05439092    -0.54500
C92         C  0.10234176  0.42625200  0.06528187     0.09600
H93         H  0.10001054  0.33662448  0.02730123     0.14100
H94         H  0.15775769  0.43679001  0.08762528    -0.00100
H95         H  0.04882183  0.32557092  0.10592038     0.14400
H96         H  0.04463831  0.40070414  0.04509934     0.14200
C97         C  0.06574411  0.61139363  0.04948819     0.86000
C98         C  0.07357938  0.57582604  0.04508171    -0.54200
C99         C  0.10551832  0.57904809  0.06005962     0.08900
C100        C  0.12720415  0.61798652  0.07827718     0.19900
C101        C  0.06201574  0.61154476  0.08375539    -0.54900
C102        C  0.09490986  0.61550209  0.09866839     0.09000
C103        C  0.10429942  0.64983119  0.04258174    -0.54500
C104        C  0.13618081  0.65346080  0.05744546     0.09600
H105        H  0.05308657  0.54835466  0.03336501     0.14100
H106        H  0.15399630  0.62114205  0.08971979    -0.00100
H107        H  0.03574205  0.60657422  0.09516062     0.14400
H108        H  0.10583342  0.67359203  0.02826771     0.14200
C109        C  0.32419731  0.35541466  0.06424927     0.86000
C110        C  0.36044671  0.39639098  0.05707167    -0.54200
C111        C  0.35805594  0.42918669  0.06542082     0.08900
C112        C  0.31841731  0.41830747  0.08004724     0.19900
C113        C  0.31692851  0.35695623  0.09740915    -0.54900
C114        C  0.31533015  0.39047189  0.10574792     0.09000
C115        C  0.28960389  0.35800656  0.04923137    -0.54500
C116        C  0.28538201  0.38975110  0.05846129     0.09600
H117        H  0.38718282  0.39931608  0.04748555     0.14100
H118        H  0.31626756  0.44521812  0.08655333    -0.00100
H119        H  0.31384971  0.33384826  0.11300951     0.14400
H120        H  0.26771563  0.33578830  0.03460976     0.14200
C121        C  0.56826678  0.87543201  0.06381288     0.86000
C122        C  0.52603799  0.86501313  0.05498325    -0.54200
C123        C  0.49666976  0.82939152  0.06606698     0.08900
C124        C  0.51277240  0.80694407  0.08503659     0.19900
C125        C  0.56808608  0.87306030  0.09803227    -0.54900
C126        C  0.53853638  0.83744136  0.10901831     0.09000
C127        C  0.57203563  0.83842692  0.05556263    -0.54500
C128        C  0.54267484  0.80282473  0.06611820     0.09600
H129        H  0.51992108  0.88594536  0.04256442     0.14100
H130        H  0.48966849  0.77720013  0.09338910    -0.00100
H131        H  0.59022749  0.89608879  0.11226969     0.14400
H132        H  0.59760937  0.84034871  0.04501441     0.14200
C133        C  0.32128142  0.87869174  0.06600593     0.86000
C134        C  0.28560443  0.84077706  0.05247380    -0.54200
C135        C  0.28183498  0.80521773  0.06273057     0.08900
C136        C  0.31500310  0.81032900  0.08385563     0.19900
C137        C  0.31524276  0.87131105  0.09958232    -0.54900
C138        C  0.31308054  0.83612880  0.10891467     0.09000
C139        C  0.35663956  0.87311603  0.05836221    -0.54500
C140        C  0.35368913  0.83793032  0.06765553     0.09600
H141        H  0.26345644  0.84020713  0.03774059     0.14100
H142        H  0.31244139  0.78118567  0.09112900    -0.00100
H143        H  0.31316685  0.89223222  0.11458070     0.14400
H144        H  0.38290787  0.89612580  0.04735788     0.14200
O145        O  0.64444869  0.51337039  0.90284277    -0.58300
C146        C  0.63246759  0.48932026  0.80783873     0.74300
O147        O  0.68404616  0.43289942  0.86459263    -0.59400
C148        C  0.64931292  0.49437209  0.92412533     0.74300
C149        C  0.56686164  0.38998252  0.86628043     0.76700
Cd150      Cd  0.64111379  0.46317131  0.86541572     1.37500
O151        O  0.63647846  0.51163731  0.82975491    -0.58300
O152        O  0.56877187  0.42393286  0.86944796    -0.57100
C153        C  0.71601892  0.46572103  0.86074325     0.76700
O154        O  0.59917136  0.38992856  0.86388100    -0.59500
O155        O  0.63245616  0.45673772  0.81321265    -0.57900
O156        O  0.64924815  0.46208599  0.91782887    -0.57900
O157        O  0.71358313  0.49764017  0.85867457    -0.57100
O158        O  0.65153239  0.04559553  0.82429662    -0.58300
C159        C  0.65853699  0.06729929  0.92152169     0.74300
O160        O  0.69193167  0.16611072  0.86337627    -0.59400
C161        C  0.64942095  0.06654119  0.80312523     0.74300
C162        C  0.57494212  0.09043988  0.86485965     0.76700
Cd163      Cd  0.65045657  0.09244202  0.86268146     1.37500
O164        O  0.66394023  0.10161964  0.91396738    -0.58300
O165        O  0.57668703  0.05805604  0.86536961    -0.57100
C166        C  0.72440525  0.16638054  0.86077190     0.76700
O167        O  0.60760602  0.12315950  0.86394256    -0.59500
O168        O  0.65002940  0.04177039  0.90090852    -0.57900
O169        O  0.64810056  0.09790656  0.80996193    -0.57900
O170        O  0.72281945  0.13240952  0.85884320    -0.57100
O171        O  0.40357130  0.27012649  0.82820901    -0.58300
C172        C  0.43871503  0.28514299  0.92480620     0.74300
O173        O  0.48809266  0.23657341  0.86310752    -0.59400
C174        C  0.42605176  0.27650843  0.80640753     0.74300
C175        C  0.52913704  0.35232122  0.86526457     0.76700
Cd176      Cd  0.45653319  0.27776171  0.86486735     1.37500
O177        O  0.46503538  0.27750997  0.91640483    -0.58300
O178        O  0.49641521  0.35184557  0.86651759    -0.57100
C179        C  0.45688083  0.20274477  0.86552501     0.76700
O180        O  0.52795393  0.31863568  0.86292811    -0.59500
O181        O  0.41710679  0.28818562  0.90481843    -0.57900
O182        O  0.46062543  0.28344495  0.81228309    -0.57900
O183        O  0.42460130  0.20307682  0.86775007    -0.57100
O184        O  0.41301907  0.04655940  0.82770630    -0.58300
C185        C  0.43952052  0.06778781  0.92486739     0.74300
O186        O  0.53629510  0.12336178  0.86468279    -0.59400
C187        C  0.43365062  0.06774980  0.80621233     0.74300
C188        C  0.45863557  0.16524114  0.86559449     0.76700
Cd189      Cd  0.46375621  0.09272631  0.86519760     1.37500
O190        O  0.46848794  0.10107677  0.91701430    -0.58300
O191        O  0.42777358  0.13082855  0.86684099    -0.57100
C192        C  0.53713782  0.09051994  0.86505762     0.76700
O193        O  0.49146181  0.16597334  0.86426991    -0.59500
O194        O  0.41920785  0.04335920  0.90438687    -0.57900
O195        O  0.46664085  0.09815562  0.81254753    -0.57900
O196        O  0.50398112  0.05814772  0.86538615    -0.57100
O197        O  0.88937243  0.28465022  0.89415900    -0.58300
C198        C  0.85396369  0.27206176  0.79784662     0.74300
O199        O  0.76312313  0.23815763  0.86089349    -0.59400
C200        C  0.86748490  0.27971174  0.91605041     0.74300
C201        C  0.83546799  0.35590093  0.85806568     0.76700
Cd202      Cd  0.83504500  0.27935026  0.85789685     1.37500
O203        O  0.87662127  0.27298550  0.81863924    -0.58300
O204        O  0.86730817  0.35499204  0.85484111    -0.57100
C205        C  0.76201485  0.20438054  0.86001070     0.76700
O206        O  0.80433103  0.32214330  0.86109957    -0.59500
O207        O  0.82409424  0.27451008  0.80517133    -0.57900
O208        O  0.83320622  0.27355259  0.91004708    -0.57900
O209        O  0.79479336  0.20504272  0.85843342    -0.57100
O210        O  0.88148822  0.52086195  0.88909248    -0.58300
C211        C  0.84825991  0.48973854  0.79703490     0.74300
O212        O  0.80160908  0.39351049  0.86131479    -0.59400
C213        C  0.86313076  0.50314505  0.91230520     0.74300
C214        C  0.75400107  0.46649965  0.85907232     0.76700
Cd215      Cd  0.82829588  0.46697930  0.85689477     1.37500
O216        O  0.86961319  0.51509820  0.81664337    -0.58300
O217        O  0.78627550  0.49909585  0.85539544    -0.57100
C218        C  0.83400556  0.39383165  0.85813459     0.76700
O219        O  0.75601873  0.43441826  0.86150635    -0.59500
O220        O  0.82003810  0.45657131  0.80584021    -0.57900
O221        O  0.83041095  0.47108933  0.90892477    -0.57900
O222        O  0.86452945  0.42817774  0.85487576    -0.57100
C223        C  0.71812613  0.94796159  0.66995637     0.86000
C224        C  0.75649239  0.98531472  0.68036969    -0.54200
C225        C  0.79002726  0.98807659  0.66938661     0.08900
C226        C  0.78255878  0.95242060  0.64939191     0.19900
C227        C  0.72135851  0.95096180  0.63566049    -0.54900
C228        C  0.75450444  0.95171980  0.62513000     0.09000
C229        C  0.72324241  0.91151547  0.67751617    -0.54500
C230        C  0.75672291  0.91368806  0.66675674     0.09600
H231        H  0.75687044  0.00927613  0.69349485     0.14100
H232        H  0.81014633  0.95437403  0.64109610    -0.00100
H233        H  0.70099369  0.95336910  0.62060916     0.14400
H234        H  0.70040161  0.88445265  0.68812838     0.14200
C235        C  0.98118731  0.20831065  0.66780760     0.86000
C236        C  0.01771980  0.20453741  0.67562940    -0.54200
C237        C  0.01572937  0.16966360  0.66588749     0.08900
C238        C  0.97692023  0.14126462  0.64947907     0.19900
C239        C  0.97750403  0.20266632  0.63372702    -0.54900
C240        C  0.97649853  0.16806315  0.62437813     0.09000
C241        C  0.94558910  0.16967035  0.67935899    -0.54500
C242        C  0.94247026  0.13472639  0.66946879     0.09600
H243        H  0.04453868  0.22916899  0.68519409     0.14100
H244        H  0.97508475  0.11259737  0.64214534    -0.00100
H245        H  0.97574949  0.22291287  0.61792509     0.14400
H246        H  0.92213912  0.17003361  0.69184418     0.14200
C247        C  0.23302319  0.20076895  0.66848602     0.86000
C248        C  0.22902811  0.16020102  0.67824600    -0.54200
C249        C  0.19818996  0.12705920  0.66580970     0.08900
C250        C  0.17253831  0.13735879  0.64507452     0.19900
C251        C  0.23406296  0.19875717  0.63416397    -0.54900
C252        C  0.20151653  0.16607854  0.62208924     0.09000
C253        C  0.19317010  0.19784342  0.67446413    -0.54500
C254        C  0.16156152  0.16497512  0.66230818     0.09600
H255        H  0.25128518  0.15814748  0.69172784     0.14100
H256        H  0.14647013  0.11022549  0.63568189    -0.00100
H257        H  0.25799062  0.21916513  0.62029886     0.14400
H258        H  0.19041420  0.22147641  0.68562259     0.14200
C259        C  0.23774026  0.93938969  0.66510607     0.86000
C260        C  0.19877390  0.90060489  0.67113750    -0.54200
C261        C  0.16609646  0.90016929  0.65963997     0.08900
C262        C  0.17513160  0.93871554  0.64250663     0.19900
C263        C  0.23777996  0.94264524  0.63068429    -0.54900
C264        C  0.20404681  0.94083544  0.61911307     0.09000
C265        C  0.23180076  0.97461045  0.67489213    -0.54500
C266        C  0.19996329  0.97506931  0.66297209     0.09600
H267        H  0.19740667  0.87425062  0.68173444     0.14100
H268        H  0.14833233  0.93838347  0.63344025    -0.00100
H269        H  0.26133255  0.94679334  0.61639144     0.14400
H270        H  0.25347650  0.99959355  0.68824860     0.14200
C271        C  0.96854905  0.67921638  0.65422222     0.86000
C272        C  0.93903334  0.69268796  0.66352478    -0.54200
C273        C  0.94550393  0.72843030  0.65298481     0.08900
C274        C  0.98387269  0.75071546  0.63552995     0.19900
C275        C  0.97220047  0.68440191  0.62045303    -0.54900
C276        C  0.98067101  0.72188651  0.61088901     0.09000
C277        C  0.00809664  0.71427237  0.66628972    -0.54500
C278        C  0.01613121  0.75168644  0.65584240     0.09600
H279        H  0.91321149  0.67441531  0.67661068     0.14100
H280        H  0.99001475  0.78095754  0.62764641    -0.00100
H281        H  0.96794695  0.66036419  0.60554769     0.14400
H282        H  0.02841604  0.71105693  0.68096608     0.14200
C283        C  0.72768384  0.69220472  0.67050982     0.86000
C284        C  0.73166049  0.73308957  0.67857946    -0.54200
C285        C  0.76187101  0.76541613  0.66515272     0.08900
C286        C  0.78619488  0.75449517  0.64511437     0.19900
C287        C  0.72497691  0.69105641  0.63601687    -0.54900
C288        C  0.75572307  0.72466894  0.62298788     0.09000
C289        C  0.76862094  0.69631411  0.67615266    -0.54500
C290        C  0.79902415  0.72890284  0.66338444     0.09600
H291        H  0.71017450  0.73584135  0.69192900     0.14100
H292        H  0.81158960  0.78145504  0.63519818    -0.00100
H293        H  0.70310479  0.66599433  0.62306368     0.14400
H294        H  0.77288308  0.67365626  0.68779328     0.14200
C295        C  0.89938485  0.27438888  0.72210539     0.86000
C296        C  0.89936723  0.31382606  0.71604247    -0.54200
C297        C  0.86671417  0.31406760  0.72567571     0.08900
C298        C  0.83710342  0.27530945  0.74195181     0.19900
C299        C  0.89383766  0.26847272  0.75602707    -0.54900
C300        C  0.86214061  0.27057568  0.76632379     0.09000
C301        C  0.85953094  0.24061010  0.70958333    -0.54500
C302        C  0.82661875  0.23955630  0.72103484     0.09600
H303        H  0.92379199  0.34005297  0.70581996     0.14100
H304        H  0.81098691  0.27651972  0.75015577    -0.00100
H305        H  0.91155313  0.26174622  0.77093602     0.14400
H306        H  0.85759311  0.21655264  0.69570136     0.14200
C307        C  0.87589699  0.52933743  0.71709509     0.86000
C308        C  0.83152884  0.51397760  0.71040112    -0.54200
C309        C  0.80585326  0.48171596  0.72621182     0.08900
C310        C  0.82627329  0.46295511  0.74416805     0.19900
C311        C  0.88011921  0.53186424  0.75118026    -0.54900
C312        C  0.85387362  0.49666520  0.76509658     0.09000
C313        C  0.88024242  0.49288247  0.70886510    -0.54500
C314        C  0.85466452  0.45836351  0.72327758     0.09600
H315        H  0.81976796  0.52706373  0.69503244     0.14100
H316        H  0.80494844  0.43400602  0.75481094    -0.00100
H317        H  0.90095433  0.55899425  0.76300337     0.14400
H318        H  0.90257599  0.49442208  0.69404208     0.14200
C319        C  0.64052564  0.54398439  0.73419994     0.86000
C320        C  0.60295070  0.50795066  0.72074914    -0.54200
C321        C  0.59553422  0.47114524  0.73096631     0.08900
C322        C  0.62764165  0.47273766  0.75183523     0.19900
C323        C  0.63461291  0.53676234  0.76785621    -0.54900
C324        C  0.63013115  0.50042259  0.77700021     0.09000
C325        C  0.67359847  0.53433756  0.72679954    -0.54500
C326        C  0.66691439  0.49721550  0.73604290     0.09600
H327        H  0.58210948  0.50970367  0.70608347     0.14100
H328        H  0.62208702  0.44239572  0.75901401    -0.00100
H329        H  0.63511850  0.55868588  0.78319708     0.14400
H330        H  0.70129681  0.55621950  0.71679571     0.14200
C331        C  0.63956806  0.01442696  0.72801380     0.86000
C332        C  0.67170366  0.05417563  0.71431257    -0.54200
C333        C  0.67426989  0.08860932  0.72546871     0.08900
C334        C  0.64086610  0.07966665  0.74731323     0.19900
C335        C  0.64740544  0.02171442  0.76179657    -0.54900
C336        C  0.64693673  0.05524775  0.77178090     0.09000
C337        C  0.60070955  0.01444070  0.72303095    -0.54500
C338        C  0.60142510  0.04864377  0.73241443     0.09600
H339        H  0.69413654  0.05508384  0.69986126     0.14100
H340        H  0.64078156  0.10716183  0.75521039    -0.00100
H341        H  0.65362968  0.00366651  0.77682920     0.14400
H342        H  0.57414694  0.98882297  0.71406605     0.14200
C343        C  0.38375972  0.02224603  0.73048578     0.86000
C344        C  0.42185591  0.02227285  0.72221152    -0.54200
C345        C  0.45578981  0.05489804  0.73220096     0.08900
C346        C  0.44869470  0.08496004  0.75033538     0.19900
C347        C  0.38816973  0.02489096  0.76474505    -0.54900
C348        C  0.42144358  0.05853167  0.77491897     0.09000
C349        C  0.38958457  0.06351925  0.72060722    -0.54500
C350        C  0.42238568  0.09634826  0.73165160     0.09600
H351        H  0.42188950  0.99653292  0.71206960     0.14100
H352        H  0.47646356  0.11155224  0.75828475    -0.00100
H353        H  0.37099888  0.00025260  0.77964701     0.14400
H354        H  0.36691743  0.06645033  0.70834747     0.14200
C355        C  0.37685059  0.27920333  0.73189716     0.86000
C356        C  0.38584224  0.24742981  0.71863578    -0.54200
C357        C  0.41911119  0.24817535  0.72951000     0.08900
C358        C  0.44309518  0.28414646  0.75033581     0.19900
C359        C  0.37915631  0.27340362  0.76587088    -0.54900
C360        C  0.41441197  0.27715839  0.77533272     0.09000
C361        C  0.41326858  0.32010330  0.72621117    -0.54500
C362        C  0.44777125  0.32233313  0.73470915     0.09600
H363        H  0.36428966  0.22251804  0.70518436     0.14100
H364        H  0.47173243  0.28703294  0.75763199    -0.00100
H365        H  0.35623487  0.26622018  0.78143946     0.14400
H366        H  0.41195041  0.34594757  0.71719441     0.14200
O367        O  0.79439708  0.94966696  0.58701238    -0.58300
C368        C  0.76178086  0.95456419  0.47512614     0.74300
O369        O  0.83132478  0.02312540  0.53613200    -0.59400
C370        C  0.76355046  0.95063156  0.59367684     0.74300
C371        C  0.78642300  0.87159499  0.53191315     0.76700
Cd372      Cd  0.78824006  0.94867582  0.53417936     1.37500
O373        O  0.79417961  0.95667956  0.48223313    -0.58300
O374        O  0.75454531  0.87293467  0.53237674    -0.57100
C375        C  0.86337552  0.02212617  0.53548976     0.76700
O376        O  0.81818811  0.90517115  0.53234008    -0.59500
O377        O  0.73906351  0.95061050  0.49621973    -0.57900
O378        O  0.74190438  0.95024884  0.57232429    -0.57900
O379        O  0.86054291  0.98759160  0.53443625    -0.57100
O380        O  0.21617495  0.94346384  0.49165839    -0.58300
C381        C  0.19432106  0.94149023  0.58748284     0.74300
O382        O  0.13869352  0.98884371  0.52844865    -0.59400
C383        C  0.19801226  0.94799615  0.46978715     0.74300
C384        C  0.09407541  0.87192279  0.52403597     0.76700
Cd385      Cd  0.16872737  0.94584622  0.52809036     1.37500
O386        O  0.21705464  0.94538042  0.56643057    -0.58300
O387        O  0.12633349  0.87131037  0.52429584    -0.57100
C388        C  0.17063965  0.02219239  0.53013190     0.76700
O389        O  0.09649375  0.90622974  0.52557734    -0.59500
O390        O  0.16164999  0.93882342  0.58042102    -0.57900
O391        O  0.16883118  0.95247661  0.47553783    -0.57900
O392        O  0.20243542  0.02070058  0.53116781    -0.57100
O393        O  0.21475008  0.18520481  0.49162401    -0.58300
C394        C  0.19309328  0.15754023  0.59020985     0.74300
O395        O  0.09447103  0.10263155  0.52804335    -0.59400
C396        C  0.19740637  0.16029481  0.47070128     0.74300
C397        C  0.17028296  0.06046983  0.53052155     0.76700
Cd398      Cd  0.16748670  0.13430673  0.52997214     1.37500
O399        O  0.21359670  0.18150702  0.56975347    -0.58300
O400        O  0.20180453  0.09436461  0.53247690    -0.57100
C401        C  0.09280025  0.13484561  0.53037181     0.76700
O402        O  0.13802378  0.06094355  0.52863902    -0.59500
O403        O  0.16331019  0.12479067  0.58226438    -0.57900
O404        O  0.16928107  0.12615452  0.47799040    -0.57900
O405        O  0.12565703  0.16750912  0.53158724    -0.57100
O406        O  0.97832070  0.17931296  0.57172617    -0.58300
C407        C  0.97349952  0.15835618  0.47631217     0.74300
O408        O  0.02198373  0.10092907  0.53082970    -0.59400
C409        C  0.97697371  0.15723754  0.59331250     0.74300
C410        C  0.90210873  0.05903504  0.53562515     0.76700
Cd411      Cd  0.97821973  0.13092378  0.53455539     1.37500
O412        O  0.98091400  0.18259055  0.49764583    -0.58300
O413        O  0.93386254  0.05746109  0.53480246    -0.57100
C414        C  0.05448683  0.13392270  0.53186923     0.76700
O415        O  0.90541895  0.09385142  0.53628091    -0.59500
O416        O  0.96674515  0.12321210  0.48277963    -0.57900
O417        O  0.97663453  0.12473900  0.58723920    -0.57900
O418        O  0.05217547  0.16579455  0.53446113    -0.57100
O419        O  0.74533801  0.70906999  0.49310243    -0.58300
C420        C  0.76382915  0.73325789  0.59109696     0.74300
O421        O  0.86427712  0.79195601  0.53155523    -0.59400
C422        C  0.76591979  0.73274894  0.47256744     0.74300
C423        C  0.78721607  0.83336261  0.53131818     0.76700
Cd424      Cd  0.79125502  0.75950016  0.53184479     1.37500
O425        O  0.74264719  0.71051967  0.57016248    -0.58300
O426        O  0.75599966  0.79916950  0.52977802    -0.57100
C427        C  0.86593672  0.75971161  0.52931246     0.76700
O428        O  0.81966069  0.83324260  0.53263067    -0.59500
O429        O  0.79497878  0.76494981  0.58377892    -0.57900
O430        O  0.79510773  0.76605314  0.48032206    -0.57900
O431        O  0.83320425  0.72687679  0.52950759    -0.57100
O432        O  0.97635574  0.71071272  0.55820624    -0.58300
C433        C  0.97947146  0.73551046  0.46375536     0.74300
O434        O  0.93659334  0.79357387  0.52684146    -0.59400
C435        C  0.98361081  0.73441971  0.57985161     0.74300
C436        C  0.05553005  0.83485619  0.52253315     0.76700
Cd437      Cd  0.97954685  0.76285841  0.52230394     1.37500
O438        O  0.97788173  0.71322079  0.48523248    -0.58300
O439        O  0.05246524  0.80013212  0.52207367    -0.57100
C440        C  0.90403927  0.76063012  0.52644795     0.76700
O441        O  0.02364804  0.83622239  0.52209427    -0.59500
O442        O  0.98064329  0.76838165  0.46997778    -0.57900
O443        O  0.99070744  0.76983094  0.57399705    -0.57900
O444        O  0.90604261  0.72865543  0.52343358    -0.57100
O445        O  0.53950650  0.85358272  0.16074310    -0.58300
C446        C  0.52489865  0.82958856  0.25772443     0.74300
O447        O  0.42629515  0.76573925  0.19827315    -0.59400
C448        C  0.53072612  0.82742053  0.14060191     0.74300
C449        C  0.50440161  0.72739106  0.20029764     0.76700
Cd450      Cd  0.49943672  0.80020130  0.19893295     1.37500
O451        O  0.54630391  0.85019578  0.23637914    -0.58300
O452        O  0.53532511  0.76173551  0.20275334    -0.57100
C453        C  0.42396142  0.79772372  0.19719149     0.76700
O454        O  0.47166586  0.72691051  0.19825579    -0.59500
O455        O  0.49350283  0.79746185  0.25128037    -0.57900
O456        O  0.51131891  0.79084644  0.14833273    -0.57900
O457        O  0.45626038  0.83076362  0.19558913    -0.57100
O458        O  0.31177141  0.84489976  0.16172020    -0.58300
C459        C  0.31457322  0.82257221  0.25813184     0.74300
O460        O  0.26692698  0.72123066  0.19660818    -0.59400
C461        C  0.30992349  0.82313262  0.13999262     0.74300
C462        C  0.38571988  0.79655506  0.19764822     0.76700
Cd463      Cd  0.31071614  0.79458537  0.19865524     1.37500
O464        O  0.31151790  0.78916815  0.25089582    -0.58300
O465        O  0.38352957  0.82865116  0.19744856    -0.57100
C466        C  0.23483018  0.72205367  0.19733715     0.76700
O467        O  0.35334944  0.76345320  0.19841918    -0.59500
O468        O  0.31526428  0.84525054  0.23718608    -0.57900
O469        O  0.30715916  0.78939585  0.14596408    -0.57900
O470        O  0.23749732  0.75652628  0.19940829    -0.57100
O471        O  0.07439495  0.60564992  0.15029176    -0.58300
C472        C  0.09607315  0.61279181  0.25055870     0.74300
O473        O  0.15300276  0.56735312  0.19265869    -0.59400
C474        C  0.10089989  0.61489125  0.13101150     0.74300
C475        C  0.19654879  0.68462591  0.19554398     0.76700
Cd476      Cd  0.12248359  0.61014311  0.19167919     1.37500
O477        O  0.07765923  0.61724855  0.22877388    -0.58300
O478        O  0.16401928  0.68469213  0.19556453    -0.57100
C479        C  0.12166877  0.53357053  0.19010329     0.76700
O480        O  0.19466684  0.65055148  0.19360958    -0.59500
O481        O  0.12385616  0.60617427  0.24445508    -0.57900
O482        O  0.13459356  0.62290567  0.14051983    -0.57900
O483        O  0.08951770  0.53435675  0.18825828    -0.57100
O484        O  0.08431436  0.37328510  0.23190685    -0.58300
C485        C  0.11133652  0.39239922  0.13425612     0.74300
O486        O  0.15627367  0.49671641  0.19208601    -0.59400
C487        C  0.10380202  0.39818687  0.25236498     0.74300
C488        C  0.20487392  0.42560734  0.19807029     0.76700
Cd489      Cd  0.13040934  0.42354134  0.19326742     1.37500
O490        O  0.08648580  0.37396020  0.15452133    -0.58300
O491        O  0.17256644  0.39236784  0.19854200    -0.57100
C492        C  0.12340353  0.49579611  0.18992273     0.76700
O493        O  0.20265589  0.45765534  0.19633681    -0.59500
O494        O  0.14344195  0.42307428  0.14186456    -0.57900
O495        O  0.13239689  0.43167659  0.24452873    -0.57900
O496        O  0.09282097  0.46109709  0.18815267    -0.57100
O497        O  0.31508898  0.38073027  0.15840368    -0.58300
C498        C  0.32788447  0.40758075  0.25361470     0.74300
O499        O  0.36139164  0.50390812  0.19117785    -0.59400
C500        C  0.31387503  0.40127635  0.13661545     0.74300
C501        C  0.24317830  0.42708992  0.19842169     0.76700
Cd502      Cd  0.31849658  0.43085516  0.19507739     1.37500
O503        O  0.32259891  0.38359893  0.23250190    -0.58300
O504        O  0.24576731  0.39520720  0.19814406    -0.57100
C505        C  0.39343080  0.50288633  0.19178493     0.76700
O506        O  0.27527196  0.46048314  0.19809831    -0.59500
O507        O  0.32943097  0.44060290  0.24694956    -0.57900
O508        O  0.31375642  0.43360546  0.14236088    -0.57900
O509        O  0.39084978  0.46841461  0.19308074    -0.57100
O510        O  0.49906556  0.60510531  0.24737780    -0.58300
C511        C  0.53511193  0.61598882  0.13667130     0.74300
O512        O  0.43379226  0.57429443  0.19139212    -0.59400
C513        C  0.53205554  0.60788357  0.25339852     0.74300
C514        C  0.50592349  0.68966815  0.19913897     0.76700
Cd515      Cd  0.50569289  0.61394771  0.19498107     1.37500
O516        O  0.55324413  0.61138363  0.15849397    -0.58300
O517        O  0.53817514  0.68902671  0.19952518    -0.57100
C518        C  0.43167742  0.54007482  0.19183978     0.76700
O519        O  0.47448983  0.65592516  0.19707344    -0.59500
O520        O  0.50602131  0.62058749  0.14250939    -0.57900
O521        O  0.55419367  0.61240303  0.23178141    -0.57900
O522        O  0.46398982  0.53965098  0.19308994    -0.57100
C523        C  0.71925275  0.95215962  0.39604983     0.86000
C524        C  0.72376809  0.91500873  0.38979340    -0.54200
C525        C  0.75578637  0.91575749  0.40227794     0.08900
C526        C  0.78113222  0.95391787  0.42078928     0.19900
C527        C  0.71894289  0.95274458  0.43056835    -0.54900
C528        C  0.75233813  0.95463436  0.44327660     0.09000
C529        C  0.75864802  0.98930676  0.38822945    -0.54500
C530        C  0.79084889  0.99041722  0.40105518     0.09600
H531        H  0.70191781  0.88882256  0.37748179     0.14100
H532        H  0.80780890  0.95463474  0.43050269    -0.00100
H533        H  0.69493901  0.95009152  0.44381556     0.14400
H534        H  0.76065292  0.01417753  0.37500870     0.14200
C535        C  0.24114441  0.94034589  0.39507674     0.86000
C536        C  0.24015721  0.97853306  0.38453050    -0.54200
C537        C  0.20849798  0.98135619  0.39436318     0.08900
C538        C  0.18048827  0.94541840  0.41369115     0.19900
C539        C  0.24011170  0.94450494  0.42909972    -0.54900
C540        C  0.20779920  0.94622021  0.43870171     0.09000
C541        C  0.20098745  0.90463269  0.38639448    -0.54500
C542        C  0.16947801  0.90677153  0.39612158     0.09600
H543        H  0.26500484  0.00399029  0.37413118     0.14100
H544        H  0.15430847  0.94700538  0.42128517    -0.00100
H545        H  0.26329426  0.94733752  0.44409839     0.14400
H546        H  0.19770635  0.87819683  0.37481918     0.14200
C547        C  0.23279178  0.20409231  0.39163917     0.86000
C548        C  0.19085002  0.19738588  0.38613974    -0.54200
C549        C  0.16138214  0.16359920  0.39856957     0.08900
C550        C  0.17644010  0.13899004  0.41618322     0.19900
C551        C  0.23523812  0.20427695  0.42613214    -0.54900
C552        C  0.20577623  0.16929653  0.43877549     0.09000
C553        C  0.23158179  0.16482463  0.38267873    -0.54500
C554        C  0.20281370  0.13096945  0.39567527     0.09600
H555        H  0.18514642  0.21937731  0.37492741     0.14100
H556        H  0.15207726  0.11091387  0.42581520    -0.00100
H557        H  0.25592671  0.22977420  0.43935646     0.14400
H558        H  0.25376641  0.16428121  0.36874953     0.14200
C559        C  0.98739373  0.21042907  0.40024442     0.86000
C560        C  0.94903191  0.17398834  0.38822989    -0.54200
C561        C  0.94177038  0.13757422  0.39995372     0.08900
C562        C  0.97414330  0.14053524  0.42119385     0.19900
C563        C  0.98314367  0.20657606  0.43419258    -0.54900
C564        C  0.97587402  0.16982060  0.44492930     0.09000
C565        C  0.01862276  0.19834513  0.39273403    -0.54500
C566        C  0.01310620  0.16343460  0.40446896     0.09600
H567        H  0.92848591  0.17564050  0.37284234     0.14100
H568        H  0.96875419  0.11085519  0.42979607    -0.00100
H569        H  0.98641795  0.23095339  0.44832177     0.14400
H570        H  0.04476501  0.21691433  0.38013873     0.14200
C571        C  0.97736327  0.68763433  0.38787973     0.86000
C572        C  0.01418484  0.72673381  0.37833826    -0.54200
C573        C  0.01712383  0.76106180  0.38950303     0.08900
C574        C  0.98177813  0.75382621  0.40832214     0.19900
C575        C  0.97886991  0.69079560  0.42229740    -0.54900
C576        C  0.98014883  0.72521146  0.43259119     0.09000
C577        C  0.94191813  0.69302042  0.37959492    -0.54500
C578        C  0.94403829  0.72737812  0.39043772     0.09600
H579        H  0.03817473  0.72688798  0.36627752     0.14100
H580        H  0.98381487  0.78232052  0.41632419    -0.00100
H581        H  0.97871384  0.66921484  0.43767840     0.14400
H582        H  0.91497593  0.66904307  0.36966296     0.14200
C583        C  0.72820970  0.69277801  0.39311698     0.86000
C584        C  0.76899000  0.69860211  0.38659872    -0.54200
C585        C  0.79940740  0.73129307  0.39976981     0.08900
C586        C  0.78658203  0.75573720  0.41871515     0.19900
C587        C  0.72645795  0.69151790  0.42756809    -0.54900
C588        C  0.75801924  0.72442471  0.44068429     0.09000
C589        C  0.73001512  0.73322521  0.38592948    -0.54500
C590        C  0.76005764  0.76592407  0.39931311     0.09600
H591        H  0.77327512  0.67671283  0.37428912     0.14100
H592        H  0.81191409  0.78290348  0.42877187    -0.00100
H593        H  0.70271353  0.66885983  0.44056773     0.14400
H594        H  0.70748452  0.73539310  0.37289329     0.14200
C595        C  0.57544123  0.87423274  0.33279289     0.86000
C596        C  0.57632613  0.83487180  0.33888732    -0.54200
C597        C  0.54433090  0.80088610  0.32851719     0.08900
C598        C  0.51336964  0.80881801  0.31314681     0.19900
C599        C  0.56794311  0.87425262  0.29914439    -0.54900
C600        C  0.53610240  0.83956895  0.28895727     0.09000
C601        C  0.53597162  0.86582641  0.34652530    -0.54500
C602        C  0.50341107  0.83297333  0.33492591     0.09600
H603        H  0.60123589  0.83412230  0.34938455     0.14100
H604        H  0.48706046  0.78067524  0.30519421    -0.00100
H605        H  0.58653211  0.89916135  0.28468378     0.14400
H606        H  0.53217895  0.88496499  0.36186015     0.14200
C607        C  0.31700016  0.86533932  0.33648270     0.86000
C608        C  0.35259012  0.86043552  0.34462730    -0.54200
C609        C  0.35241598  0.82794551  0.33214642     0.08900
C610        C  0.31565876  0.80221227  0.31278172     0.19900
C611        C  0.31649602  0.86547839  0.30196886    -0.54900
C612        C  0.31653172  0.83239320  0.28985320     0.09000
C613        C  0.28021635  0.82472308  0.34366199    -0.54500
C614        C  0.27895451  0.79196076  0.33119842     0.09600
H615        H  0.37786683  0.88316062  0.35704690     0.14100
H616        H  0.31507497  0.77501895  0.30348383    -0.00100
H617        H  0.31392268  0.88725993  0.28817119     0.14400
H618        H  0.25510346  0.82246584  0.35548109     0.14200
C619        C  0.58396005  0.61341004  0.32826623     0.86000
C620        C  0.54543726  0.57701454  0.33917925    -0.54200
C621        C  0.51163793  0.57599851  0.32927839     0.08900
C622        C  0.51941958  0.61195151  0.30931720     0.19900
C623        C  0.57719858  0.60823375  0.29430917    -0.54900
C624        C  0.54400947  0.60876403  0.28452503     0.09000
C625        C  0.58106380  0.65093322  0.33609610    -0.54500
C626        C  0.54801416  0.65061554  0.32622385     0.09600
H627        H  0.54431793  0.55031180  0.34873320     0.14100
H628        H  0.49216322  0.61177836  0.30153886    -0.00100
H629        H  0.59511663  0.60204732  0.27950982     0.14400
H630        H  0.60474320  0.67712286  0.34726883     0.14200
C631        C  0.07367473  0.35752014  0.33237479     0.86000
C632        C  0.06696935  0.39282449  0.33962269    -0.54200
C633        C  0.09210478  0.42777391  0.32543952     0.08900
C634        C  0.12241100  0.42476638  0.30566555     0.19900
C635        C  0.07105350  0.35470109  0.29811347    -0.54900
C636        C  0.09651912  0.39054514  0.28434896     0.09000
C637        C  0.11796623  0.37497292  0.34027010    -0.54500
C638        C  0.14342148  0.40766883  0.32491176     0.09600
H639        H  0.04384970  0.39035808  0.35401982     0.14100
H640        H  0.14336189  0.45408290  0.29529374    -0.00100
H641        H  0.05170960  0.32712149  0.28615730     0.14400
H642        H  0.12995730  0.36342289  0.35674088     0.14200
C643        C  0.05231302  0.61648606  0.32637994     0.86000
C644        C  0.09328197  0.65016454  0.33679863    -0.54200
C645        C  0.12438297  0.64743006  0.32624439     0.08900
C646        C  0.11171467  0.61002566  0.30663313     0.19900
C647        C  0.05617989  0.61907830  0.29210153    -0.54900
C648        C  0.08664516  0.61429520  0.28195062     0.09000
C649        C  0.05053563  0.57634376  0.33407704    -0.54500
C650        C  0.08159991  0.57315408  0.32425013     0.09600
H651        H  0.09739469  0.67618571  0.34938008     0.14100
H652        H  0.13704933  0.60703752  0.29882349    -0.00100
H653        H  0.03880658  0.62586523  0.27689284     0.14400
H654        H  0.02582566  0.55171246  0.34536994     0.14200
C655        C  0.31662699  0.35547072  0.32912944     0.86000
C656        C  0.28174651  0.36283693  0.33435561    -0.54200
C657        C  0.28683959  0.39858763  0.32385395     0.08900
C658        C  0.32679875  0.42463928  0.30891656     0.19900
C659        C  0.32459982  0.36186526  0.29553962    -0.54900
C660        C  0.32848752  0.39741706  0.28501478     0.09000
C661        C  0.35210590  0.39332658  0.34316920    -0.54500
C662        C  0.35860537  0.42928855  0.33130176     0.09600
H663        H  0.25421889  0.34056877  0.34436679     0.14100
H664        H  0.33066806  0.45388125  0.30057978    -0.00100
H665        H  0.32534434  0.33955527  0.28123807     0.14400
H666        H  0.37239962  0.39333654  0.35934074     0.14200
C667        C  0.21187847  0.43073767  0.34421914    -0.02300
C668        C  0.18398441  0.41362110  0.32095791     0.07400
C669        C  0.19061196  0.39121778  0.29911322    -0.02400
C670        C  0.22644973  0.39095910  0.29842712    -0.02400
C671        C  0.25342657  0.40685531  0.32212779     0.07500
C672        C  0.24470452  0.42452313  0.34590726    -0.02600
Br673      Br  0.27258182  0.43272596  0.38286176    -0.01200
Br674      Br  0.20254684  0.45823023  0.37581256    -0.01200
Br675      Br  0.23481192  0.36253793  0.26688942    -0.01200
Br676      Br  0.14875123  0.35175839  0.27441997    -0.01200
C677        C  0.06783747  0.47121373  0.30252571    -0.02300
C678        C  0.08713155  0.46361325  0.32611273     0.07400
C679        C  0.09974089  0.48906696  0.35084705    -0.02400
C680        C  0.09598529  0.52388456  0.35091370    -0.02400
C681        C  0.08184616  0.53451082  0.32560547     0.07500
C682        C  0.06584370  0.50700005  0.30199269    -0.02600
Br683      Br  0.03774729  0.51589133  0.27011808    -0.01200
Br684      Br  0.04047736  0.43104097  0.27239240    -0.01200
Br685      Br  0.10634925  0.55413457  0.38665842    -0.01200
Br686      Br  0.12078248  0.47548267  0.38500039    -0.01200
C687        C  0.43951196  0.53903276  0.34128693    -0.02300
C688        C  0.47260072  0.53829377  0.32999840     0.07400
C689        C  0.46798774  0.50181162  0.31829631    -0.02400
C690        C  0.43134144  0.46588188  0.32012566    -0.02400
C691        C  0.39823609  0.46650016  0.33207801     0.07500
C692        C  0.40237335  0.50361106  0.34158098    -0.02600
Br693      Br  0.35734748  0.50696359  0.35444855    -0.01200
Br694      Br  0.44464078  0.58854167  0.35654087    -0.01200
Br695      Br  0.42672150  0.41675049  0.30400047    -0.01200
Br696      Br  0.51033946  0.50111821  0.29689916    -0.01200
C697        C  0.17564261  0.71391821  0.30528138    -0.02300
C698        C  0.16499421  0.68326323  0.32672185     0.07400
C699        C  0.19124680  0.68974104  0.35044619    -0.02400
C700        C  0.22863989  0.72499655  0.35170554    -0.02400
C701        C  0.24057904  0.75369662  0.32888060     0.07500
C702        C  0.21299443  0.74903778  0.30651056    -0.02600
Br703      Br  0.22295772  0.79291580  0.28000201    -0.01200
Br704      Br  0.13798211  0.71080369  0.27579640    -0.01200
Br705      Br  0.26109808  0.73673179  0.38671575    -0.01200
Br706      Br  0.17498523  0.65261564  0.38280830    -0.01200
C707        C  0.42294066  0.85899426  0.31690815    -0.02300
C708        C  0.38975816  0.82652879  0.33026953     0.07400
C709        C  0.39344206  0.79487246  0.34336990    -0.02400
C710        C  0.43069799  0.79727900  0.34536772    -0.02400
C711        C  0.46433543  0.83100999  0.33380414     0.07500
C712        C  0.46011115  0.86158023  0.31898047    -0.02600
Br713      Br  0.50449223  0.90739228  0.30078840    -0.01200
Br714      Br  0.41755116  0.89944274  0.29433172    -0.01200
Br715      Br  0.43585624  0.75509884  0.36505830    -0.01200
Br716      Br  0.34772137  0.74804334  0.35842790    -0.01200
C717        C  0.53474413  0.73750656  0.35359040    -0.02300
C718        C  0.54349646  0.76148414  0.32798501     0.07400
C719        C  0.55629365  0.75026167  0.30270339    -0.02400
C720        C  0.55753436  0.71407184  0.30225538    -0.02400
C721        C  0.54510209  0.68804610  0.32684057     0.07500
C722        C  0.53561896  0.70086615  0.35304654    -0.02600
Br723      Br  0.52779985  0.67047169  0.38889312    -0.01200
Br724      Br  0.52468609  0.75642650  0.38994214    -0.01200
Br725      Br  0.58240493  0.70413841  0.26944198    -0.01200
Br726      Br  0.57717548  0.78638680  0.26962696    -0.01200
C727        C  0.66381157  0.62513145  0.38544997    -0.02300
C728        C  0.69628552  0.65927076  0.37376573     0.07400
C729        C  0.69588056  0.66598830  0.34310276    -0.02400
C730        C  0.65992161  0.64777349  0.32715469    -0.02400
C731        C  0.62366912  0.61997127  0.34130980     0.07500
C732        C  0.62679911  0.60881300  0.37119472    -0.02600
Br733      Br  0.58319376  0.58042473  0.39791538    -0.01200
Br734      Br  0.67110909  0.59555834  0.41736768    -0.01200
Br735      Br  0.66265628  0.66968446  0.28794308    -0.01200
Br736      Br  0.74433662  0.70301227  0.32279927    -0.01200
C737        C  0.87092879  0.76573293  0.38670001    -0.02300
C738        C  0.83873632  0.73472902  0.40167603     0.07400
C739        C  0.84254952  0.70366440  0.41570819    -0.02400
C740        C  0.87683472  0.70107691  0.41196635    -0.02400
C741        C  0.90805314  0.73039361  0.39476605     0.07500
C742        C  0.90568809  0.76365608  0.38330707    -0.02600
Br743      Br  0.94920588  0.80557530  0.36191287    -0.01200
Br744      Br  0.86722749  0.81050413  0.37034277    -0.01200
Br745      Br  0.88008503  0.65710376  0.43098610    -0.01200
Br746      Br  0.80091981  0.66463034  0.44052532    -0.01200
C747        C  0.97506496  0.64816105  0.34138012    -0.02300
C748        C  0.97741850  0.65157800  0.37271629     0.07400
C749        C  0.99205394  0.62909620  0.38773641    -0.02400
C750        C  0.01792682  0.61954857  0.37328184    -0.02400
C751        C  0.01952751  0.62050452  0.34194090     0.07500
C752        C  0.99127094  0.62724856  0.32692804    -0.02600
Br753      Br  0.96611103  0.59984403  0.29072258    -0.01200
Br754      Br  0.95337117  0.67397073  0.31647299    -0.01200
Br755      Br  0.05116650  0.60700270  0.39807976    -0.01200
Br756      Br  0.96780867  0.59947396  0.42317156    -0.01200
C757        C  0.00442734  0.29990856  0.34940349    -0.02300
C758        C  0.04643073  0.31823799  0.34912190     0.07400
C759        C  0.06364842  0.30217004  0.36844775    -0.02400
C760        C  0.04279428  0.28118865  0.39291099    -0.02400
C761        C  0.00210505  0.25388385  0.38878743     0.07500
C762        C  0.98198246  0.26592436  0.36813997    -0.02600
Br763      Br  0.92554758  0.24349871  0.36988875    -0.01200
Br764      Br  0.97761431  0.31905348  0.32338475    -0.01200
Br765      Br  0.07281413  0.28143548  0.42708348    -0.01200
Br766      Br  0.10117619  0.28699330  0.35396059    -0.01200
C767        C  0.09492807  0.14607663  0.37649781    -0.02300
C768        C  0.12105273  0.15854158  0.40097310     0.07400
C769        C  0.11137466  0.17321796  0.42608609    -0.02400
C770        C  0.07386594  0.16954559  0.42858531    -0.02400
C771        C  0.04674142  0.15527119  0.40468092     0.07500
C772        C  0.05854486  0.14564726  0.37805422    -0.02600
Br773      Br  0.02821383  0.13833882  0.34232204    -0.01200
Br774      Br  0.11120514  0.13547867  0.33937149    -0.01200
Br775      Br  0.06382266  0.19141930  0.46332666    -0.01200
Br776      Br  0.15187729  0.20790052  0.45386682    -0.01200
C777        C  0.30141732  0.26900444  0.38178446    -0.02300
C778        C  0.26277540  0.23966483  0.37266060     0.07400
C779        C  0.25262256  0.24160876  0.34279065    -0.02400
C780        C  0.27099746  0.27857763  0.32774345    -0.02400
C781        C  0.30517538  0.31232024  0.33999525     0.07500
C782        C  0.32368117  0.30401448  0.36421796    -0.02600
Br783      Br  0.38056314  0.33113977  0.36793250    -0.01200
Br784      Br  0.32744226  0.25779777  0.41396129    -0.01200
Br785      Br  0.24621635  0.28123743  0.29119264    -0.01200
Br786      Br  0.21479646  0.19365764  0.32130426    -0.01200
C787        C  0.30685887  0.89167584  0.38475864    -0.02300
C788        C  0.31572886  0.89884228  0.35446213     0.07400
C789        C  0.31242625  0.93038781  0.34116128    -0.02400
C790        C  0.28791383  0.94365531  0.35352743    -0.02400
C791        C  0.27334255  0.93217321  0.38285305     0.07500
C792        C  0.28248158  0.90453835  0.39782080    -0.02600
Br793      Br  0.25361808  0.87317443  0.43185844    -0.01200
Br794      Br  0.32349262  0.85945429  0.40790951    -0.01200
Br795      Br  0.26664708  0.96617979  0.32512734    -0.01200
Br796      Br  0.34733024  0.96146656  0.30976408    -0.01200
C797        C  0.17301706  0.05755566  0.38261948    -0.02300
C798        C  0.20398451  0.09255274  0.39559521     0.07400
C799        C  0.23658498  0.09113565  0.40840230    -0.02400
C800        C  0.23839675  0.05511080  0.40770273    -0.02400
C801        C  0.20753647  0.02004121  0.39412890     0.07500
C802        C  0.17458312  0.02140833  0.38210963    -0.02600
Br803      Br  0.13133155  0.97411343  0.36452158    -0.01200
Br804      Br  0.12886535  0.05928638  0.36459935    -0.01200
Br805      Br  0.28234081  0.05397646  0.42725484    -0.01200
Br806      Br  0.27840412  0.13808451  0.42813731    -0.01200
C807        C  0.10671882  0.86085768  0.36848958    -0.02300
C808        C  0.12951886  0.87068433  0.39469170     0.07400
C809        C  0.11724183  0.84220320  0.41778496    -0.02400
C810        C  0.08150537  0.80562097  0.41535644    -0.02400
C811        C  0.05586395  0.79876789  0.39108218     0.07500
C812        C  0.06907936  0.82593902  0.36723644    -0.02600
Br813      Br  0.03710786  0.81348628  0.33194977    -0.01200
Br814      Br  0.12907014  0.89165261  0.33312183    -0.01200
Br815      Br  0.07193174  0.76308600  0.44307857    -0.01200
Br816      Br  0.15115862  0.85021550  0.45144274    -0.01200
C817        C  0.86979706  0.09998011  0.41159353    -0.02300
C818        C  0.90269010  0.10038249  0.39853207     0.07400
C819        C  0.89931050  0.06398332  0.38811380    -0.02400
C820        C  0.86288949  0.02791293  0.38918695    -0.02400
C821        C  0.82974891  0.02781938  0.40110839     0.07500
C822        C  0.83356719  0.06371188  0.41315274    -0.02600
Br823      Br  0.79025064  0.06283182  0.43413558    -0.01200
Br824      Br  0.87467969  0.14810212  0.42975136    -0.01200
Br825      Br  0.85896087  0.97874861  0.37453477    -0.01200
Br826      Br  0.94440678  0.06265273  0.37277797    -0.01200
C827        C  0.77126566  0.86722953  0.37634327    -0.02300
C828        C  0.75968772  0.87887493  0.40214860     0.07400
C829        C  0.74427703  0.85114385  0.42570116    -0.02400
C830        C  0.74360448  0.81398402  0.42438013    -0.02400
C831        C  0.76041521  0.80502007  0.40030197     0.07500
C832        C  0.77247318  0.83087401  0.37567562    -0.02600
Br833      Br  0.78640629  0.81445416  0.33981740    -0.01200
Br834      Br  0.78073791  0.89800989  0.34059149    -0.01200
Br835      Br  0.71253907  0.77296569  0.45291954    -0.01200
Br836      Br  0.71803878  0.86016996  0.45800196    -0.01200
C837        C  0.61833746  0.93607801  0.36723720    -0.02300
C838        C  0.61474986  0.91069971  0.34316212     0.07400
C839        C  0.65052488  0.91632423  0.33100060    -0.02400
C840        C  0.68626952  0.94016319  0.34589469    -0.02400
C841        C  0.68576857  0.94947957  0.37605455     0.07500
C842        C  0.65281511  0.95239165  0.38534764    -0.02600
Br843      Br  0.65722812  0.98563569  0.41852558    -0.01200
Br844      Br  0.58436420  0.95938509  0.37011375    -0.01200
Br845      Br  0.73501262  0.95665651  0.32501391    -0.01200
Br846      Br  0.65242416  0.88824725  0.29612300    -0.01200
C847        C  0.45574989  0.17185879  0.72159163    -0.02300
C848        C  0.42401978  0.13648302  0.73343547     0.07400
C849        C  0.39269706  0.13905454  0.74669084    -0.02400
C850        C  0.39071230  0.17494566  0.74495225    -0.02400
C851        C  0.42144243  0.20997929  0.73141124     0.07500
C852        C  0.45482244  0.20857736  0.72109903    -0.02600
Br853      Br  0.49946069  0.25670028  0.70608836    -0.01200
Br854      Br  0.50046843  0.17017888  0.70577570    -0.01200
Br855      Br  0.34573179  0.17506130  0.76251268    -0.01200
Br856      Br  0.35348490  0.09439103  0.76950540    -0.01200
C857        C  0.51885626  0.06865010  0.70799668    -0.02300
C858        C  0.49371328  0.05436685  0.73248084     0.07400
C859        C  0.50252509  0.03501702  0.75570993    -0.02400
C860        C  0.53816987  0.03409482  0.75591518    -0.02400
C861        C  0.56485330  0.05150171  0.73257217     0.07500
C862        C  0.55410512  0.06673348  0.70790049    -0.02600
Br863      Br  0.58527465  0.08052133  0.67274852    -0.01200
Br864      Br  0.50320472  0.08716085  0.67344784    -0.01200
Br865      Br  0.54827744  0.00502952  0.78678587    -0.01200
Br866      Br  0.46421954  0.00497691  0.78557078    -0.01200
C867        C  0.54317802  0.40866462  0.70561874    -0.02300
C868        C  0.55544635  0.43535603  0.72970015     0.07400
C869        C  0.52945531  0.42733327  0.75335868    -0.02400
C870        C  0.49468140  0.38987384  0.75523068    -0.02400
C871        C  0.48511850  0.36088889  0.73297847     0.07500
C872        C  0.50802612  0.37120011  0.70733236    -0.02600
Br873      Br  0.48989410  0.33536648  0.67390086    -0.01200
Br874      Br  0.57182652  0.42530412  0.66930573    -0.01200
Br875      Br  0.45891948  0.37950897  0.78739332    -0.01200
Br876      Br  0.53812168  0.46890062  0.78133141    -0.01200
C877        C  0.76659170  0.50777472  0.75301447    -0.02300
C878        C  0.76746271  0.47900734  0.73374181     0.07400
C879        C  0.73281181  0.45248820  0.71798304    -0.02400
C880        C  0.69884526  0.45672743  0.71963320    -0.02400
C881        C  0.69911545  0.48692045  0.73756843     0.07500
C882        C  0.73184216  0.50963465  0.75614359    -0.02600
Br883      Br  0.72920571  0.54275606  0.78690308    -0.01200
Br884      Br  0.81296451  0.54929467  0.77291585    -0.01200
Br885      Br  0.65257247  0.42167093  0.69693166    -0.01200
Br886      Br  0.73299599  0.41267417  0.69222786    -0.01200
C887        C  0.84685156  0.35955361  0.69994199    -0.02300
C888        C  0.86401542  0.35122976  0.72457534     0.07400
C889        C  0.88214639  0.38028446  0.74700212    -0.02400
C890        C  0.88079255  0.41634607  0.74566254    -0.02400
C891        C  0.85898772  0.42214598  0.72300246     0.07500
C892        C  0.84282505  0.39424367  0.69973703    -0.02600
Br893      Br  0.81647959  0.40423982  0.66722956    -0.01200
Br894      Br  0.83286848  0.32606511  0.66533222    -0.01200
Br895      Br  0.91217222  0.45897532  0.77331467    -0.01200
Br896      Br  0.91127725  0.37229730  0.77861372    -0.01200
C897        C  0.78496700  0.16517707  0.73372239    -0.02300
C898        C  0.78734398  0.20101433  0.72210046     0.07400
C899        C  0.75185627  0.20022739  0.71360878    -0.02400
C900        C  0.71505180  0.16395270  0.71511475    -0.02400
C901        C  0.71297760  0.12777298  0.72513906     0.07500
C902        C  0.74825375  0.12904950  0.73528960    -0.02600
Br903      Br  0.74702132  0.08224638  0.75356477    -0.01200
Br904      Br  0.83136444  0.16518469  0.74981872    -0.01200
Br905      Br  0.66750673  0.16419578  0.70322126    -0.01200
Br906      Br  0.75296865  0.24858160  0.69959592    -0.01200
C907        C  0.70694487  0.65722437  0.72015527    -0.02300
C908        C  0.69678588  0.65839001  0.69013454     0.07400
C909        C  0.65765969  0.62983554  0.68141006    -0.02400
C910        C  0.63448123  0.59628796  0.69992181    -0.02400
C911        C  0.65261453  0.58761886  0.72415459     0.07500
C912        C  0.68733352  0.62099343  0.73604610    -0.02600
Br913      Br  0.71009219  0.61948861  0.77375821    -0.01200
Br914      Br  0.74707312  0.70514055  0.74048154    -0.01200
Br915      Br  0.57786643  0.57422998  0.69870207    -0.01200
Br916      Br  0.63235965  0.64018005  0.64831018    -0.01200
C917        C  0.86508639  0.74477862  0.68483646    -0.02300
C918        C  0.83832650  0.73236210  0.66086208     0.07400
C919        C  0.84748407  0.71915416  0.63492489    -0.02400
C920        C  0.88555197  0.72543451  0.63078640    -0.02400
C921        C  0.91285769  0.73777600  0.65451926     0.07500
C922        C  0.90122819  0.74503312  0.68220648    -0.02600
Br923      Br  0.93097942  0.74863254  0.71756368    -0.01200
Br924      Br  0.85038970  0.75655798  0.72222553    -0.01200
Br925      Br  0.89616943  0.71012638  0.59341177    -0.01200
Br926      Br  0.80609237  0.68254107  0.60839910    -0.01200
C927        C  0.91038260  0.60941351  0.65898535    -0.02300
C928        C  0.95146498  0.63475570  0.66378574     0.07400
C929        C  0.97005764  0.61979897  0.68329798    -0.02400
C930        C  0.94618686  0.58501411  0.70082858    -0.02400
C931        C  0.90433287  0.56846573  0.70091254     0.07500
C932        C  0.88854963  0.58704656  0.68268176    -0.02600
Br933      Br  0.85298510  0.60392544  0.69866212    -0.01200
Br934      Br  0.88141802  0.61435520  0.62588876    -0.01200
Br935      Br  0.97116941  0.56275881  0.72581722    -0.01200
Br936      Br  0.02610822  0.63994955  0.68136557    -0.01200
C937        C  0.12421422  0.82758680  0.64452781    -0.02300
C938        C  0.12739969  0.86237821  0.65817505     0.07400
C939        C  0.09363092  0.86094219  0.67012533    -0.02400
C940        C  0.05749917  0.82452040  0.67008919    -0.02400
C941        C  0.05494850  0.78897971  0.65853854     0.07500
C942        C  0.08818708  0.79091782  0.64494164    -0.02600
Br943      Br  0.08364430  0.74461815  0.62410398    -0.01200
Br944      Br  0.16786960  0.83074025  0.62260417    -0.01200
Br945      Br  0.01158745  0.82456382  0.68509632    -0.01200
Br946      Br  0.09609191  0.90878045  0.68620191    -0.01200
C947        C  0.30775434  0.96956474  0.73006504    -0.02300
C948        C  0.34526676  0.98841171  0.71574765     0.07400
C949        C  0.34503660  0.97988408  0.68498297    -0.02400
C950        C  0.30963729  0.95347342  0.66999179    -0.02400
C951        C  0.27309249  0.94194551  0.68293882     0.07500
C952        C  0.27264659  0.94451279  0.71408041    -0.02600
Br953      Br  0.22323301  0.91644691  0.73542695    -0.01200
Br954      Br  0.29933689  0.98320711  0.76930310    -0.01200
Br955      Br  0.31240824  0.92626946  0.63520866    -0.01200
Br956      Br  0.39032917  0.00925607  0.65980120    -0.01200
C957        C  0.18406510  0.06102118  0.68948543    -0.02300
C958        C  0.19813215  0.08785168  0.66537097     0.07400
C959        C  0.21765915  0.07994137  0.64262356    -0.02400
C960        C  0.21682986  0.04264306  0.64134806    -0.02400
C961        C  0.19782207  0.01317225  0.66349947     0.07500
C962        C  0.18400147  0.02385038  0.68860711    -0.02600
Br963      Br  0.16967438  0.99018803  0.72324654    -0.01200
Br964      Br  0.17050863  0.07781201  0.72532112    -0.01200
Br965      Br  0.24747238  0.03566883  0.61133028    -0.01200
Br966      Br  0.25248272  0.12255679  0.61633819    -0.01200
C967        C  0.30295663  0.25968497  0.73243087    -0.02300
C968        C  0.33915138  0.27547982  0.71737748     0.07400
C969        C  0.33771143  0.28136951  0.68638889    -0.02400
C970        C  0.30107789  0.26567073  0.67172031    -0.02400
C971        C  0.26708235  0.23542971  0.68560266     0.07500
C972        C  0.26747590  0.23534419  0.71694099    -0.02600
Br973      Br  0.22093801  0.20143572  0.73978957    -0.01200
Br974      Br  0.29922091  0.27984075  0.77036890    -0.01200
Br975      Br  0.29733231  0.29393402  0.63744614    -0.01200
Br976      Br  0.38407482  0.30835251  0.66212457    -0.01200
C977        C  0.96776667  0.26772473  0.66480705    -0.02300
C978        C  0.98074575  0.24491584  0.68135925     0.07400
C979        C  0.98138581  0.24894490  0.71247262    -0.02400
C980        C  0.96300237  0.26871251  0.72524448    -0.02400
C981        C  0.93513094  0.27407446  0.70835921     0.07500
C982        C  0.94063161  0.27727029  0.67737208    -0.02600
Br983      Br  0.91211285  0.29422926  0.65117098    -0.01200
Br984      Br  0.99568893  0.29693781  0.63019433    -0.01200
Br985      Br  0.98649228  0.29890254  0.76091797    -0.01200
Br986      Br  0.00266972  0.22434550  0.73889477    -0.01200
C987        C  0.08320203  0.19380230  0.64501444    -0.02300
C988        C  0.05184767  0.16612620  0.66289215     0.07400
C989        C  0.05495225  0.13492232  0.67734831    -0.02400
C990        C  0.09006854  0.13303657  0.67573149    -0.02400
C991        C  0.12252607  0.16276783  0.66014266     0.07500
C992        C  0.11859932  0.19247308  0.64399394    -0.02600
Br993      Br  0.16151918  0.23137315  0.62006772    -0.01200
Br994      Br  0.07775092  0.23286735  0.62085539    -0.01200
Br995      Br  0.09396363  0.09035051  0.69560356    -0.01200
Br996      Br  0.01182247  0.09544369  0.70028074    -0.01200
C997        C  0.63626287  0.97187038  0.68323840    -0.02300
C998        C  0.64055725  0.97819784  0.71418205     0.07400
C999        C  0.65434882  0.95571669  0.73019485    -0.02400
C1000       C  0.67974755  0.94488897  0.71638509    -0.02400
C1001       C  0.68224429  0.94623415  0.68510530     0.07500
C1002       C  0.65318748  0.95114073  0.66957291    -0.02600
Br1003     Br  0.62746343  0.92015866  0.63466972    -0.01200
Br1004     Br  0.60955611  0.99241582  0.65841544    -0.01200
Br1005     Br  0.71122266  0.93048437  0.74163175    -0.01200
Br1006     Br  0.62908847  0.92811301  0.76605431    -0.01200
C1007       C  0.89155588  0.07123025  0.69466395    -0.02300
C1008       C  0.90328832  0.09711131  0.66993899     0.07400
C1009       C  0.87504525  0.09031130  0.64754420    -0.02400
C1010       C  0.83806449  0.05484960  0.64758197    -0.02400
C1011       C  0.82829308  0.02645942  0.67052393     0.07500
C1012       C  0.85385626  0.03620513  0.69510075    -0.02600
Br1013     Br  0.83550523  0.00404729  0.73038941    -0.01200
Br1014     Br  0.92526936  0.08573059  0.72906786    -0.01200
Br1015     Br  0.79938995  0.04813911  0.61776878    -0.01200
Br1016     Br  0.88374287  0.13144646  0.61878506    -0.01200
C1017       C  0.79340576  0.87584612  0.67635362    -0.02300
C1018       C  0.76055290  0.87711468  0.66410208     0.07400
C1019       C  0.73097874  0.84318197  0.64876361    -0.02400
C1020       C  0.73207538  0.80698626  0.64854579    -0.02400
C1021       C  0.76308487  0.80468314  0.66319012     0.07500
C1022       C  0.79488438  0.83968886  0.67554203    -0.02600
Br1023     Br  0.84037521  0.83821177  0.69127660    -0.01200
Br1024     Br  0.83596211  0.92291023  0.69486329    -0.01200
Br1025     Br  0.69162131  0.76120263  0.62694025    -0.01200
Br1026     Br  0.68954994  0.84614935  0.62670502    -0.01200
C1027       C  0.40559482  0.82785792  0.09176592    -0.02300
C1028       C  0.38740296  0.83035009  0.06571637     0.07400
C1029       C  0.40299244  0.82758180  0.03848809    -0.02400
C1030       C  0.43751216  0.82404306  0.03802702    -0.02400
C1031       C  0.45436371  0.81966209  0.06469799     0.07500
C1032       C  0.43431146  0.81640458  0.09102311    -0.02600
Br1033     Br  0.43858264  0.79006641  0.12558346    -0.01200
Br1034     Br  0.40068765  0.85090283  0.12783370    -0.01200
Br1035     Br  0.46072361  0.82367792  0.00091423    -0.01200
Br1036     Br  0.37936132  0.83194554  0.00208177    -0.01200
C1037       C  0.17832790  0.72163539  0.07935829    -0.02300
C1038       C  0.17333832  0.69246163  0.05827527     0.07400
C1039       C  0.20218707  0.70215749  0.03663625    -0.02400
C1040       C  0.23839818  0.73846633  0.03867236    -0.02400
C1041       C  0.24413894  0.76682152  0.06055112     0.07500
C1042       C  0.21345093  0.75892981  0.08027800    -0.02600
Br1043     Br  0.21805730  0.79926023  0.10804970    -0.01200
Br1044     Br  0.13579585  0.71275838  0.10521008    -0.01200
Br1045     Br  0.27976618  0.74957762  0.01126395    -0.01200
Br1046     Br  0.19040001  0.66859759  0.00231483    -0.01200
C1047       C  0.19940175  0.40373203  0.03147191    -0.02300
C1048       C  0.17129498  0.38312283  0.05349035     0.07400
C1049       C  0.17828659  0.35936338  0.07402725    -0.02400
C1050       C  0.21548361  0.36189673  0.07583259    -0.02400
C1051       C  0.24595562  0.38735949  0.05638005     0.07500
C1052       C  0.23707546  0.40683024  0.03338935    -0.02600
Br1053     Br  0.27575107  0.43635560  0.00387010    -0.01200
Br1054     Br  0.18418770  0.42190475  0.99656580    -0.01200
Br1055     Br  0.22271926  0.32840791  0.10454457    -0.01200
Br1056     Br  0.13556092  0.31891644  0.09721041    -0.01200
C1057       C  0.13944163  0.50129586  0.05394055    -0.02300
C1058       C  0.10875029  0.46806691  0.06861527     0.07400
C1059       C  0.08226895  0.47442073  0.08551710    -0.02400
C1060       C  0.08111817  0.51057190  0.08284683    -0.02400
C1061       C  0.10946799  0.54263061  0.06563753     0.07500
C1062       C  0.14028458  0.53877301  0.05306520    -0.02600
Br1063     Br  0.18343106  0.58433275  0.03441889    -0.01200
Br1064     Br  0.18045236  0.49609672  0.03513179    -0.01200
Br1065     Br  0.03986523  0.51495071  0.10268177    -0.01200
Br1066     Br  0.05042776  0.43569748  0.11482175    -0.01200
C1067       C  0.57164331  0.72375487  0.08313349    -0.02300
C1068       C  0.54614500  0.69237332  0.06384785     0.07400
C1069       C  0.52023204  0.69776755  0.04490943    -0.02400
C1070       C  0.51886613  0.73392061  0.04576052    -0.02400
C1071       C  0.54443045  0.76518943  0.06483448     0.07500
C1072       C  0.57126908  0.76040326  0.08321258    -0.02600
Br1073     Br  0.60766869  0.80397281  0.10857965    -0.01200
Br1074     Br  0.60691375  0.71690349  0.10989772    -0.01200
Br1075     Br  0.48277475  0.74109719  0.02029242    -0.01200
Br1076     Br  0.48793196  0.65653358  0.01691282    -0.01200
C1077       C  0.42046256  0.48206699  0.08948067    -0.02300
C1078       C  0.39421908  0.46986382  0.06510886     0.07400
C1079       C  0.40728120  0.49179450  0.03854142    -0.02400
C1080       C  0.44395221  0.52813893  0.03750390    -0.02400
C1081       C  0.46896851  0.54154761  0.06256299     0.07500
C1082       C  0.45827091  0.51624235  0.08759873    -0.02600
Br1083     Br  0.49736918  0.52176773  0.11657557    -0.01200
Br1084     Br  0.40764649  0.44959006  0.12460183    -0.01200
Br1085     Br  0.46187100  0.55668322  0.00077817    -0.01200
Br1086     Br  0.37737266  0.46962033  0.00274092    -0.01200
C1087       C  0.99820992  0.58276708  0.98170103    -0.02300
C1088       C  0.96564591  0.58561773  0.99249969     0.07400
C1089       C  0.97349331  0.61234568  0.01647436    -0.02400
C1090       C  0.00591388  0.62166166  0.03566817    -0.02400
C1091       C  0.03288062  0.60823653  0.02863879     0.07500
C1092       C  0.03272533  0.59696297  0.99884834    -0.02600
Br1093     Br  0.07967756  0.60208467  0.98032067    -0.01200
Br1094     Br  0.99567849  0.55554431  0.94527570    -0.01200
Br1095     Br  0.01651316  0.65874631  0.06777062    -0.01200
Br1096     Br  0.94907188  0.64578162  0.01793213    -0.01200
C1097       C  0.97967625  0.28326601  0.00430072    -0.02300
C1098       C  0.94975955  0.29140804  0.01358881     0.07400
C1099       C  0.95081108  0.30159852  0.04381069    -0.02400
C1100       C  0.98646998  0.31832510  0.05983095    -0.02400
C1101       C  0.02058727  0.32031670  0.04727627     0.07500
C1102       C  0.01387402  0.29527796  0.02230856    -0.02600
Br1103     Br  0.04169972  0.26534309  0.01866633    -0.01200
Br1104     Br  0.97079123  0.24825010  0.97121002    -0.01200
Br1105     Br  0.98625731  0.33781318  0.09895200    -0.01200
Br1106     Br  0.90374936  0.29317874  0.06425326    -0.01200
C1107       C  0.86692903  0.41424328  0.00972110    -0.02300
C1108       C  0.87844872  0.43774948  0.98388690     0.07400
C1109       C  0.89106944  0.42443436  0.95955846    -0.02400
C1110       C  0.89088168  0.38751760  0.96076821    -0.02400
C1111       C  0.87619764  0.36232671  0.98571109     0.07500
C1112       C  0.86529034  0.37642976  0.01055219    -0.02600
Br1113     Br  0.85181109  0.34616097  0.04677258    -0.01200
Br1114     Br  0.85734458  0.43562070  0.04492790    -0.01200
Br1115     Br  0.91736073  0.37582987  0.93000875    -0.01200
Br1116     Br  0.91339379  0.45817700  0.92543617    -0.01200
C1117       C  0.63960633  0.98945880  0.05032989    -0.02300
C1118       C  0.65019495  0.98990177  0.02048455     0.07400
C1119       C  0.64232136  0.95303683  0.00806795    -0.02400
C1120       C  0.61374674  0.91638563  0.02061070    -0.02400
C1121       C  0.59905091  0.91547671  0.04946214     0.07500
C1122       C  0.61087752  0.95322792  0.06327446    -0.02600
Br1123     Br  0.58048153  0.95866140  0.09459326    -0.01200
Br1124     Br  0.65996282  0.03912473  0.07270998    -0.01200
Br1125     Br  0.58847666  0.87159718  0.99330298    -0.01200
Br1126     Br  0.67647310  0.95177670  0.97833528    -0.01200
C1127       C  0.76741910  0.13928922  0.98240924    -0.02300
C1128       C  0.73341423  0.13819462  0.99400761     0.07400
C1129       C  0.73483933  0.17474705  0.00181621    -0.02400
C1130       C  0.77078943  0.21145721  0.00092142    -0.02400
C1131       C  0.80515359  0.21215463  0.99099854     0.07500
C1132       C  0.80288122  0.17624348  0.98033023    -0.02600
Br1133     Br  0.84724355  0.17759729  0.96057054    -0.01200
Br1134     Br  0.76538174  0.09087225  0.96719636    -0.01200
Br1135     Br  0.77269490  0.26057358  0.01368372    -0.01200
Br1136     Br  0.68796234  0.17557146  0.01341611    -0.01200
C1137       C  0.54436258  0.08927103  0.01686445    -0.02300
C1138       C  0.51601961  0.07071204  0.99418661     0.07400
C1139       C  0.52303124  0.04997647  0.97153059    -0.02400
C1140       C  0.55937442  0.05091427  0.97021680    -0.02400
C1141       C  0.58818462  0.07060125  0.99249731     0.07500
C1142       C  0.57949541  0.08747928  0.01673592    -0.02600
Br1143     Br  0.61209944  0.10177705  0.05190919    -0.01200
Br1144     Br  0.53397331  0.11395668  0.04961487    -0.01200
Br1145     Br  0.56606654  0.01911416  0.94033376    -0.01200
Br1146     Br  0.48137295  0.01466560  0.94469499    -0.01200
C1147       C  0.31304379  0.93008475  0.03254837    -0.02300
C1148       C  0.33146236  0.92156482  0.05665382     0.07400
C1149       C  0.36651066  0.95448739  0.06867070    -0.02400
C1150       C  0.38564862  0.99095080  0.05335199    -0.02400
C1151       C  0.37503527  0.99250491  0.02353752     0.07500
C1152       C  0.33581033  0.96452404  0.01481828    -0.02600
Br1153     Br  0.31045946  0.97654260  0.98254492    -0.01200
Br1154     Br  0.25626385  0.90265070  0.02798529    -0.01200
Br1155     Br  0.42643534  0.03804810  0.07405031    -0.01200
Br1156     Br  0.39357238  0.94991457  0.10357733    -0.01200
C1157       C  0.41567864  0.18273262  0.97696646    -0.02300
C1158       C  0.43693539  0.21171120  0.99888537     0.07400
C1159       C  0.45329830  0.20175510  0.02311610    -0.02400
C1160       C  0.45229666  0.16445699  0.02367482    -0.02400
C1161       C  0.43577907  0.13776225  0.99970707     0.07500
C1162       C  0.41524307  0.14581653  0.97728537    -0.02600
Br1163     Br  0.38195487  0.10481127  0.94912414    -0.01200
Br1164     Br  0.38283342  0.19084276  0.94858664    -0.01200
Br1165     Br  0.46936149  0.14846641  0.05863094    -0.01200
Br1166     Br  0.47383238  0.23743427  0.05663133    -0.01200
C1167       C  0.31566177  0.29572426  0.03168248    -0.02300
C1168       C  0.33346290  0.32188358  0.05606329     0.07400
C1169       C  0.36732244  0.32264300  0.06900444    -0.02400
C1170       C  0.38721842  0.30662284  0.05363030    -0.02400
C1171       C  0.37783550  0.29621962  0.02352449     0.07500
C1172       C  0.33879434  0.28491914  0.01421625    -0.02600
Br1173     Br  0.31376907  0.24840220  0.98155646    -0.01200
Br1174     Br  0.25884236  0.26478804  0.02756149    -0.01200
Br1175     Br  0.42646826  0.29843845  0.07474853    -0.01200
Br1176     Br  0.39082573  0.34921542  0.10603740    -0.01200
C1177       C  0.76605561  0.53773915  0.96912571    -0.02300
C1178       C  0.74099048  0.51942926  0.99319213     0.07400
C1179       C  0.75422566  0.50594752  0.01744376    -0.02400
C1180       C  0.79115455  0.50766589  0.01655553    -0.02400
C1181       C  0.81477759  0.52267020  0.99138348     0.07500
C1182       C  0.80314749  0.54007577  0.96844943    -0.02600
Br1183     Br  0.83903312  0.57159511  0.93764198    -0.01200
Br1184     Br  0.75080013  0.56192398  0.93768436    -0.01200
Br1185     Br  0.81073306  0.49278024  0.05070968    -0.01200
Br1186     Br  0.72252939  0.48687242  0.05231959    -0.01200
C1187       C  0.55874871  0.43242336  0.98380638    -0.02300
C1188       C  0.59269738  0.43364679  0.99696790     0.07400
C1189       C  0.59069429  0.39697764  0.00562699    -0.02400
C1190       C  0.55432715  0.36026921  0.00413262    -0.02400
C1191       C  0.51986740  0.36004830  0.99377680     0.07500
C1192       C  0.52304855  0.39570757  0.98163289    -0.02600
Br1193     Br  0.47873099  0.39415092  0.96042619    -0.01200
Br1194     Br  0.55922879  0.48005305  0.96805759    -0.01200
Br1195     Br  0.55217578  0.31064243  0.01603468    -0.01200
Br1196     Br  0.63741287  0.39706183  0.02040505    -0.01200
C1197       C  0.64057135  0.60277337  0.99942008    -0.02300
C1198       C  0.65503397  0.58028393  0.01465099     0.07400
C1199       C  0.65878046  0.58496789  0.04580649    -0.02400
C1200       C  0.64261436  0.60588405  0.06031189    -0.02400
C1201       C  0.61417187  0.61242174  0.04540868     0.07500
C1202       C  0.61555067  0.61341821  0.01403322    -0.02600
Br1203     Br  0.58290355  0.62731087  0.98955896    -0.01200
Br1204     Br  0.66362370  0.63016032  0.96297932    -0.01200
Br1205     Br  0.66835792  0.63428664  0.09606283    -0.01200
Br1206     Br  0.68379541  0.56179774  0.06992222    -0.01200
loop_ 
_geom_bond_atom_site_label_1 
_geom_bond_atom_site_label_2 
_geom_bond_distance 
_geom_bond_site_symmetry_2 
_ccdc_geom_bond_type 
C1            C2   1.524   1_556  S
C1            C7   1.541   1_556  S
C1            C5   1.566       .  S
C1         C1198   1.540   1_556  S
C2            H9   1.086       .  S
C2            C3   1.358   1_554  D
C3            C4   1.542       .  S
C3         C1178   1.474       .  S
C4            C8   1.537   1_556  S
C4            C6   1.526       .  S
C4           H10   1.110       .  S
C5           H11   1.074       .  S
C5            C6   1.370       .  D
C6          C148   1.478       .  S
C7           H12   1.087       .  S
C7            C8   1.363       .  D
C8         C1188   1.496   1_554  S
C13          C14   1.543       .  S
C13          C19   1.520       .  S
C13          C17   1.560   1_554  S
C13        C1171   1.531       .  S
C14          H21   1.087       .  S
C14          C15   1.363   1_554  D
C15          C16   1.532       .  S
C15        C1191   1.490       .  S
C16          C20   1.533       .  S
C16          C18   1.537       .  S
C16          H22   1.110       .  S
C17          H23   1.082       .  S
C17          C18   1.375       .  D
C18         C172   1.479       .  S
C19          H24   1.087       .  S
C19          C20   1.350   1_554  D
C20        C1158   1.460       .  S
C25          C26   1.523       .  S
C25          C31   1.539       .  S
C25          C29   1.564   1_554  S
C25        C1151   1.529   1_545  S
C26          H33   1.087       .  S
C26          C27   1.349   1_554  D
C27          C28   1.533       .  S
C27        C1161   1.465       .  S
C28          C32   1.531       .  S
C28          C30   1.537       .  S
C28          H34   1.111       .  S
C29          H35   1.082   1_545  S
C29          C30   1.380       .  D
C30         C185   1.484       .  S
C31          H36   1.087       .  S
C31          C32   1.353   1_554  D
C32        C1138   1.476       .  S
C37          C38   1.531       .  S
C37          C43   1.535       .  S
C37          C41   1.573   1_554  S
C37        C1118   1.542   1_545  S
C38          H45   1.088       .  S
C38          C39   1.345   1_554  D
C39          C40   1.530       .  S
C39        C1141   1.470       .  S
C40          C44   1.529       .  S
C40          C42   1.532       .  S
C40          H46   1.110       .  S
C41          H47   1.079   1_545  S
C41          C42   1.380       .  D
C42         C159   1.487       .  S
C43          H48   1.086       .  S
C43          C44   1.365   1_554  D
C44        C1128   1.483       .  S
C49          C50   1.531   1_556  S
C49          C55   1.535       .  S
C49          C53   1.573       .  S
C49        C1098   1.546   1_556  S
C50          H57   1.087       .  S
C50          C51   1.357   1_554  D
C51          C52   1.530       .  S
C51        C1131   1.480       .  S
C52          C56   1.538       .  S
C52          C54   1.534       .  S
C52          H58   1.110       .  S
C53          H59   1.080       .  S
C53          C54   1.385       .  D
C54         C200   1.490       .  S
C55          H60   1.088   1_556  S
C55          C56   1.351       .  D
C56        C1111   1.483       .  S
C61          C62   1.538       .  S
C61          C67   1.547       .  S
C61          C65   1.555       .  S
C61        C1088   1.541       .  S
C62          H69   1.087   1_556  S
C62          C63   1.354       .  D
C63          C64   1.533       .  S
C63        C1108   1.482       .  S
C64          C68   1.536       .  S
C64          C66   1.529       .  S
C64          H70   1.111       .  S
C65          H71   1.085       .  S
C65          C66   1.371       .  D
C66         C213   1.475       .  S
C67          H72   1.072   1_556  S
C67          C68   1.362       .  D
C68        C1181   1.484       .  S
C73          C74   1.530       .  S
C73          C79   1.539       .  S
C73          C77   1.566       .  S
C73        C1201   1.540       .  S
C74          H81   1.087       .  S
C74          C75   1.357       .  D
C75          C76   1.533       .  S
C75        C1068   1.474       .  S
C76          C80   1.542       .  S
C76          C78   1.530       .  S
C76          H82   1.111       .  S
C77          H83   1.076       .  S
C77          C78   1.374       .  D
C78         C511   1.481       .  S
C79          H84   1.087       .  S
C79          C80   1.358       .  D
C80        C1081   1.492       .  S
C85          C86   1.548       .  S
C85          C91   1.544       .  S
C85          C89   1.551       .  S
C85        C1101   1.553       .  S
C86          H93   1.071       .  S
C86          C87   1.363       .  D
C87          C88   1.544       .  S
C87        C1048   1.490       .  S
C88          C92   1.533       .  S
C88          C90   1.533       .  S
C88          H94   1.111       .  S
C89          H95   1.084       .  S
C89          C90   1.366       .  D
C90         C485   1.478       .  S
C91          H96   1.087       .  S
C91          C92   1.366       .  D
C92        C1058   1.492       .  S
C97          C98   1.542       .  S
C97         C103   1.523       .  S
C97         C101   1.567       .  S
C97        C1091   1.537       .  S
C98         H105   1.087       .  S
C98          C99   1.360       .  D
C99         C100   1.533       .  S
C99        C1061   1.487       .  S
C100        C104   1.537       .  S
C100        C102   1.537       .  S
C100        H106   1.110       .  S
C101        H107   1.083       .  S
C101        C102   1.381       .  D
C102        C474   1.487       .  S
C103        H108   1.087       .  S
C103        C104   1.350       .  D
C104       C1038   1.472       .  S
C109        C110   1.534       .  S
C109        C115   1.547       .  S
C109        C113   1.544       .  S
C109       C1168   1.537       .  S
C110        H117   1.088       .  S
C110        C111   1.354       .  D
C111        C112   1.545       .  S
C111       C1078   1.489       .  S
C112        C116   1.546       .  S
C112        C114   1.536       .  S
C112        H118   1.110       .  S
C113        H119   1.085       .  S
C113        C114   1.364       .  D
C114        C500   1.475       .  S
C115        H120   1.077       .  S
C115        C116   1.367       .  D
C116       C1051   1.493       .  S
C121        C122   1.535       .  S
C121        C127   1.536       .  S
C121        C125   1.557       .  S
C121       C1121   1.543       .  S
C122        H129   1.089       .  S
C122        C123   1.367       .  D
C123        C124   1.539       .  S
C123       C1031   1.499       .  S
C124        C128   1.527       .  S
C124        C126   1.541       .  S
C124        H130   1.108       .  S
C125        H131   1.083       .  S
C125        C126   1.367       .  D
C126        C448   1.479       .  S
C127        H132   1.081       .  S
C127        C128   1.357       .  D
C128       C1071   1.468       .  S
C133        C134   1.546       .  S
C133        C139   1.538       .  S
C133        C137   1.550       .  S
C133       C1148   1.533       .  S
C134        H141   1.075       .  S
C134        C135   1.365       .  D
C135        C136   1.531       .  S
C135       C1041   1.473       .  S
C136        C140   1.538       .  S
C136        C138   1.536       .  S
C136        H142   1.111       .  S
C137        H143   1.086       .  S
C137        C138   1.363       .  D
C138        C461   1.479       .  S
C139        H144   1.088       .  S
C139        C140   1.350       .  D
C140       C1028   1.481       .  S
O145        C148   1.270       .  A
O145       Cd150   2.521       .  S
C146        C324   1.475       .  S
C146        O155   1.261       .  A
C146        O151   1.271       .  A
O147        C153   1.265       .  A
O147       Cd150   2.456       .  S
C148        O156   1.262       .  A
C149        O154   1.265       .  A
C149        O152   1.266       .  A
C149        C175   1.458       .  S
Cd150       O157   2.474       .  S
Cd150       O156   2.401       .  S
Cd150       O155   2.389       .  S
Cd150       O151   2.517       .  S
Cd150       O154   2.434       .  S
Cd150       O152   2.457       .  S
C153        O157   1.267       .  A
C153        C214   1.467       .  S
O158        C161   1.272       .  A
O158       Cd163   2.519       .  S
C159        O168   1.271       .  A
C159        O164   1.261       .  A
O160        C166   1.266       .  A
O160       Cd163   2.445       .  S
C161        C336   1.479       .  S
C161        O169   1.261       .  A
C162        O167   1.265       .  A
C162        O165   1.267       .  A
C162        C192   1.473       .  S
Cd163       O170   2.458       .  S
Cd163       O169   2.408       .  S
Cd163       O168   2.579       .  S
Cd163       O164   2.372       .  S
Cd163       O167   2.467       .  S
Cd163       O165   2.501       .  S
C166        O170   1.267       .  A
C166        C205   1.462       .  S
O171        C174   1.272       .  A
O171       Cd176   2.534       .  S
C172        O181   1.272       .  A
C172        O177   1.260       .  A
O173        C179   1.263       .  A
O173       Cd176   2.426       .  S
C174        C360   1.480       .  S
C174        O182   1.261       .  A
C175        O180   1.265       .  A
C175        O178   1.267       .  A
Cd176       O183   2.477       .  S
Cd176       O182   2.398       .  S
Cd176       O181   2.551       .  S
Cd176       O177   2.361       .  S
Cd176       O180   2.424       .  S
Cd176       O178   2.454       .  S
C179        O183   1.268       .  A
C179        C188   1.462       .  S
O184        C187   1.272       .  A
O184       Cd189   2.529       .  S
C185        O194   1.272       .  A
C185        O190   1.262       .  A
O186        C192   1.266       .  A
O186       Cd189   2.464       .  S
C187        C348   1.481       .  S
C187        O195   1.262       .  A
C188        O193   1.266       .  A
C188        O191   1.266       .  A
Cd189       O196   2.495       .  S
Cd189       O195   2.400       .  S
Cd189       O194   2.553       .  S
Cd189       O190   2.371       .  S
Cd189       O193   2.439       .  S
Cd189       O191   2.467       .  S
C192        O196   1.268       .  A
O197        C200   1.271       .  A
O197       Cd202   2.590       .  S
C198        C300   1.480       .  S
C198        O207   1.261       .  A
C198        O203   1.272       .  A
O199        C205   1.265       .  A
O199       Cd202   2.443       .  S
C200        O208   1.261       .  A
C201        O206   1.264       .  A
C201        O204   1.268       .  A
C201        C218   1.472       .  S
Cd202       O209   2.461       .  S
Cd202       O208   2.377       .  S
Cd202       O207   2.420       .  S
Cd202       O203   2.518       .  S
Cd202       O206   2.457       .  S
Cd202       O204   2.509       .  S
C205        O209   1.267       .  A
O210        C213   1.270       .  A
O210       Cd215   2.526       .  S
C211        C312   1.473       .  S
C211        O220   1.261       .  A
C211        O216   1.270       .  A
O212        C218   1.265       .  A
O212       Cd215   2.460       .  S
C213        O221   1.261       .  A
C214        O219   1.265       .  A
C214        O217   1.266       .  A
Cd215       O222   2.499       .  S
Cd215       O221   2.368       .  S
Cd215       O220   2.347       .  S
Cd215       O216   2.530       .  S
Cd215       O219   2.460       .  S
Cd215       O217   2.480       .  S
C218        O222   1.267       .  A
C223        C224   1.536       .  S
C223        C229   1.531       .  S
C223        C227   1.564       .  S
C223       C1001   1.538       .  S
C224        H231   1.087   1_565  S
C224        C225   1.359       .  D
C225        C226   1.540       .  S
C225       C1011   1.482   1_565  S
C226        C230   1.530       .  S
C226        C228   1.531       .  S
C226        H232   1.111       .  S
C227        H233   1.077       .  S
C227        C228   1.370       .  D
C228        C370   1.483       .  S
C229        H234   1.087       .  S
C229        C230   1.362       .  D
C230       C1018   1.477       .  S
C235        C236   1.535   1_655  S
C235        C241   1.532       .  S
C235        C239   1.560       .  S
C235        C978   1.535       .  S
C236        H243   1.086       .  S
C236        C237   1.367       .  D
C237        C238   1.538   1_455  S
C237        C988   1.485       .  S
C238        C242   1.545       .  S
C238        C240   1.529       .  S
C238        H244   1.111       .  S
C239        H245   1.075       .  S
C239        C240   1.368       .  D
C240        C409   1.477       .  S
C241        H246   1.088       .  S
C241        C242   1.353       .  D
C242       C1008   1.487       .  S
C247        C248   1.535       .  S
C247        C253   1.528       .  S
C247        C251   1.564       .  S
C247        C971   1.534       .  S
C248        H255   1.087       .  S
C248        C249   1.357       .  D
C249        C250   1.547       .  S
C249        C958   1.491       .  S
C250        C254   1.539       .  S
C250        C252   1.534       .  S
C250        H256   1.110       .  S
C251        H257   1.077       .  S
C251        C252   1.371       .  D
C252        C394   1.483       .  S
C253        H258   1.087       .  S
C253        C254   1.359       .  D
C254        C991   1.481       .  S
C259        C260   1.530       .  S
C259        C265   1.538       .  S
C259        C263   1.568       .  S
C259        C951   1.548       .  S
C260        H267   1.086       .  S
C260        C261   1.360       .  D
C261        C262   1.536       .  S
C261        C938   1.481       .  S
C262        C266   1.543       .  S
C262        C264   1.532       .  S
C262        H268   1.110       .  S
C263        H269   1.077       .  S
C263        C264   1.377       .  D
C264        C381   1.484       .  S
C265        H270   1.087       .  S
C265        C266   1.353       .  D
C266        C961   1.493   1_565  S
C271        C272   1.537       .  S
C271        C277   1.549   1_655  S
C271        C275   1.545       .  S
C271        C928   1.541       .  S
C272        H279   1.080       .  S
C272        C273   1.340       .  D
C273        C274   1.532       .  S
C273        C921   1.482       .  S
C274        C278   1.533   1_655  S
C274        C276   1.534       .  S
C274        H280   1.110       .  S
C275        H281   1.086       .  S
C275        C276   1.364       .  D
C276        C435   1.473       .  S
C277        H282   1.079       .  S
C277        C278   1.379       .  D
C278        C941   1.478       .  S
C283        C284   1.532       .  S
C283        C289   1.540       .  S
C283        C287   1.569       .  S
C283        C908   1.542       .  S
C284        H291   1.087       .  S
C284        C285   1.358       .  D
C285        C286   1.523       .  S
C285       C1021   1.473       .  S
C286        C290   1.531       .  S
C286        C288   1.534       .  S
C286        H292   1.110       .  S
C287        H293   1.081       .  S
C287        C288   1.382       .  D
C288        C420   1.487       .  S
C289        H294   1.087       .  S
C289        C290   1.352       .  D
C290        C918   1.475       .  S
C295        C296   1.524       .  S
C295        C301   1.546       .  S
C295        C299   1.559       .  S
C295        C981   1.539       .  S
C296        H303   1.087       .  S
C296        C297   1.355       .  D
C297        C298   1.541       .  S
C297        C888   1.469       .  S
C298        C302   1.542       .  S
C298        C300   1.532       .  S
C298        H304   1.110       .  S
C299        H305   1.076       .  S
C299        C300   1.365       .  D
C301        H306   1.087       .  S
C301        C302   1.372       .  D
C302        C898   1.506       .  S
C307        C308   1.550       .  S
C307        C313   1.528       .  S
C307        C311   1.554       .  S
C307        C931   1.535       .  S
C308        H315   1.075       .  S
C308        C309   1.347       .  D
C309        C310   1.530       .  S
C309        C878   1.491       .  S
C310        C314   1.542       .  S
C310        C312   1.525       .  S
C310        H316   1.111       .  S
C311        H317   1.085       .  S
C311        C312   1.374       .  D
C313        H318   1.086       .  S
C313        C314   1.362       .  D
C314        C891   1.469       .  S
C319        C320   1.546       .  S
C319        C325   1.545       .  S
C319        C323   1.552       .  S
C319        C911   1.551       .  S
C320        H327   1.069       .  S
C320        C321   1.361       .  D
C321        C322   1.535       .  S
C321        C868   1.478       .  S
C322        C326   1.526       .  S
C322        C324   1.530       .  S
C322        H328   1.111       .  S
C323        H329   1.084       .  S
C323        C324   1.367       .  D
C325        H330   1.087       .  S
C325        C326   1.367       .  D
C326        C881   1.488       .  S
C331        C332   1.540       .  S
C331        C337   1.526       .  S
C331        C335   1.561       .  S
C331        C998   1.537   1_545  S
C332        H339   1.087       .  S
C332        C333   1.365       .  D
C333        C334   1.545       .  S
C333        C901   1.505       .  S
C334        C338   1.547       .  S
C334        C336   1.533       .  S
C334        H340   1.110       .  S
C335        H341   1.072       .  S
C335        C336   1.366       .  D
C337        H342   1.086   1_545  S
C337        C338   1.359       .  D
C338        C861   1.481       .  S
C343        C344   1.535       .  S
C343        C349   1.535       .  S
C343        C347   1.562       .  S
C343        C948   1.556   1_545  S
C344        H351   1.086   1_545  S
C344        C345   1.363       .  D
C345        C346   1.549       .  S
C345        C858   1.486       .  S
C346        C350   1.538       .  S
C346        C348   1.531       .  S
C346        H352   1.110       .  S
C347        H353   1.080       .  S
C347        C348   1.370       .  D
C349        H354   1.088       .  S
C349        C350   1.361       .  D
C350        C848   1.499       .  S
C355        C356   1.544       .  S
C355        C361   1.522       .  S
C355        C359   1.565       .  S
C355        C968   1.541       .  S
C356        H363   1.087       .  S
C356        C357   1.366       .  D
C357        C358   1.539       .  S
C357        C851   1.502       .  S
C358        C362   1.541       .  S
C358        C360   1.532       .  S
C358        H364   1.110       .  S
C359        H365   1.070       .  S
C359        C360   1.370       .  D
C361        H366   1.086       .  S
C361        C362   1.354       .  D
C362        C871   1.469       .  S
O367        C370   1.261       .  A
O367       Cd372   2.408       .  S
C368        C528   1.488       .  S
C368        O377   1.271       .  A
C368        O373   1.260       .  A
O369        C375   1.268       .  A
O369       Cd372   2.477   1_545  S
C370        O378   1.271       .  A
C371        O376   1.263       .  A
C371        O374   1.267       .  A
C371        C423   1.470       .  S
Cd372       O379   2.446       .  S
Cd372       O378   2.542       .  S
Cd372       O377   2.585       .  S
Cd372       O373   2.378       .  S
Cd372       O376   2.454       .  S
Cd372       O374   2.507       .  S
C375        O379   1.264   1_545  A
C375        C410   1.465       .  S
O380        C383   1.271       .  A
O380       Cd385   2.534       .  S
C381        O390   1.261       .  A
C381        O386   1.270       .  A
O382        C388   1.264   1_565  A
O382       Cd385   2.437       .  S
C383        C540   1.479       .  S
C383        O391   1.261       .  A
C384        O389   1.264       .  A
C384        O387   1.267       .  A
C384        C436   1.465       .  S
Cd385       O392   2.479   1_565  S
Cd385       O391   2.399       .  S
Cd385       O390   2.396       .  S
Cd385       O386   2.551       .  S
Cd385       O389   2.446       .  S
Cd385       O387   2.481       .  S
C388        O392   1.267       .  A
C388        C397   1.463       .  S
O393        C396   1.272       .  A
O393       Cd398   2.585       .  S
C394        O403   1.261       .  A
C394        O399   1.273       .  A
O395        C401   1.264       .  A
O395       Cd398   2.477       .  S
C396        C552   1.491       .  S
C396        O404   1.261       .  A
C397        O402   1.266       .  A
C397        O400   1.267       .  A
Cd398       O405   2.509       .  S
Cd398       O404   2.392       .  S
Cd398       O403   2.397       .  S
Cd398       O399   2.544       .  S
Cd398       O402   2.436       .  S
Cd398       O400   2.472       .  S
C401        O405   1.267       .  A
C401        C414   1.477       .  S
O406        C409   1.271       .  A
O406       Cd411   2.507       .  S
C407        C564   1.479       .  S
C407        O416   1.261       .  A
C407        O412   1.271       .  A
O408        C414   1.266       .  A
O408       Cd411   2.484   1_455  S
C409        O417   1.263       .  A
C410        O415   1.266       .  A
C410        O413   1.268       .  A
Cd411       O418   2.502   1_655  S
Cd411       O417   2.403       .  S
Cd411       O416   2.382       .  S
Cd411       O412   2.537       .  S
Cd411       O415   2.463       .  S
Cd411       O413   2.451       .  S
C414        O418   1.266       .  A
O419        C422   1.272       .  A
O419       Cd424   2.556       .  S
C420        O429   1.261       .  A
C420        O425   1.271       .  A
O421        C427   1.265       .  A
O421       Cd424   2.475       .  S
C422        C588   1.480       .  S
C422        O430   1.260       .  A
C423        O428   1.266       .  A
C423        O426   1.267       .  A
Cd424       O431   2.497       .  S
Cd424       O430   2.352       .  S
Cd424       O429   2.367       .  S
Cd424       O425   2.576       .  S
Cd424       O428   2.454       .  S
Cd424       O426   2.493       .  S
C427        O431   1.267       .  A
C427        C440   1.474       .  S
O432        C435   1.270       .  A
O432       Cd437   2.515       .  S
C433        C576   1.477       .  S
C433        O442   1.263       .  A
C433        O438   1.270       .  A
O434        C440   1.266       .  A
O434       Cd437   2.481       .  S
C435        O443   1.261       .  A
C436        O441   1.267       .  A
C436        O439   1.266       .  A
Cd437       O444   2.489       .  S
Cd437       O443   2.376       .  S
Cd437       O442   2.385       .  S
Cd437       O438   2.517       .  S
Cd437       O441   2.447   1_655  S
Cd437       O439   2.465   1_655  S
C440        O444   1.265       .  A
O445        C448   1.270       .  A
O445       Cd450   2.541       .  S
C446        C600   1.475       .  S
C446        O455   1.260       .  A
C446        O451   1.271       .  A
O447        C453   1.265       .  A
O447       Cd450   2.474       .  S
C448        O456   1.260       .  A
C449        O454   1.267       .  A
C449        O452   1.268       .  A
C449        C514   1.467       .  S
Cd450       O457   2.475       .  S
Cd450       O456   2.416       .  S
Cd450       O455   2.390       .  S
Cd450       O451   2.522       .  S
Cd450       O454   2.441       .  S
Cd450       O452   2.478       .  S
C453        O457   1.265       .  A
C453        C462   1.467       .  S
O458        C461   1.272       .  A
O458       Cd463   2.521       .  S
C459        C612   1.483       .  S
C459        O468   1.271       .  A
C459        O464   1.262       .  A
O460        C466   1.266       .  A
O460       Cd463   2.447       .  S
C461        O469   1.261       .  A
C462        O467   1.266       .  A
C462        O465   1.265       .  A
Cd463       O470   2.476       .  S
Cd463       O469   2.401       .  S
Cd463       O468   2.553       .  S
Cd463       O464   2.383       .  S
Cd463       O467   2.471       .  S
Cd463       O465   2.465       .  S
C466        O470   1.267       .  A
C466        C475   1.466       .  S
O471        C474   1.272       .  A
O471       Cd476   2.579       .  S
C472        C648   1.487       .  S
C472        O481   1.261       .  A
C472        O477   1.273       .  A
O473        C479   1.264       .  A
O473       Cd476   2.445       .  S
C474        O482   1.260       .  A
C475        O480   1.265       .  A
C475        O478   1.267       .  A
Cd476       O483   2.513       .  S
Cd476       O482   2.377       .  S
Cd476       O481   2.403       .  S
Cd476       O477   2.554       .  S
Cd476       O480   2.445       .  S
Cd476       O478   2.478       .  S
C479        O483   1.268       .  A
C479        C492   1.472       .  S
O484        C487   1.272       .  A
O484       Cd489   2.569       .  S
C485        O494   1.261       .  A
C485        O490   1.273       .  A
O486        C492   1.265       .  A
O486       Cd489   2.447       .  S
C487        C636   1.484       .  S
C487        O495   1.260       .  A
C488        O493   1.266       .  A
C488        O491   1.267       .  A
C488        C501   1.464       .  S
Cd489       O496   2.509       .  S
Cd489       O495   2.348       .  S
Cd489       O494   2.400       .  S
Cd489       O490   2.519       .  S
Cd489       O493   2.446       .  S
Cd489       O491   2.464       .  S
C492        O496   1.268       .  A
O497        C500   1.272       .  A
O497       Cd502   2.495       .  S
C498        C660   1.478       .  S
C498        O507   1.262       .  A
C498        O503   1.272       .  A
O499        C505   1.267       .  A
O499       Cd502   2.438       .  S
C500        O508   1.262       .  A
C501        O506   1.266       .  A
C501        O504   1.266       .  A
Cd502       O509   2.449       .  S
Cd502       O508   2.406       .  S
Cd502       O507   2.388       .  S
Cd502       O503   2.526       .  S
Cd502       O506   2.451       .  S
Cd502       O504   2.465       .  S
C505        O509   1.266       .  A
C505        C518   1.459       .  S
O510        C513   1.261       .  A
O510       Cd515   2.402       .  S
C511        O520   1.261       .  A
C511        O516   1.269       .  A
O512        C518   1.263       .  A
O512       Cd515   2.437       .  S
C513        C624   1.478       .  S
C513        O521   1.270       .  A
C514        O519   1.263       .  A
C514        O517   1.267       .  A
Cd515       O522   2.466       .  S
Cd515       O521   2.526       .  S
Cd515       O520   2.396       .  S
Cd515       O516   2.541       .  S
Cd515       O519   2.442       .  S
Cd515       O517   2.494       .  S
C518        O522   1.266       .  A
C523        C524   1.537       .  S
C523        C529   1.528       .  S
C523        C527   1.569       .  S
C523        C841   1.539       .  S
C524        H531   1.088       .  S
C524        C525   1.349       .  D
C525        C526   1.537       .  S
C525        C828   1.484       .  S
C526        C530   1.532       .  S
C526        C528   1.538       .  S
C526        H532   1.110       .  S
C527        H533   1.081       .  S
C527        C528   1.383       .  D
C529        H534   1.087   1_565  S
C529        C530   1.356       .  D
C530        C821   1.477   1_565  S
C535        C536   1.545       .  S
C535        C541   1.526       .  S
C535        C539   1.559       .  S
C535        C791   1.545       .  S
C536        H543   1.084   1_565  S
C536        C537   1.370       .  D
C537        C538   1.537       .  S
C537        C801   1.491   1_565  S
C538        C542   1.538       .  S
C538        C540   1.535       .  S
C538        H544   1.110       .  S
C539        H545   1.085       .  S
C539        C540   1.369       .  D
C541        H546   1.088       .  S
C541        C542   1.350       .  D
C542        C808   1.480       .  S
C547        C548   1.539       .  S
C547        C553   1.529       .  S
C547        C551   1.569       .  S
C547        C778   1.544       .  S
C548        H555   1.088       .  S
C548        C549   1.354       .  D
C549        C550   1.542       .  S
C549        C768   1.489       .  S
C550        C554   1.536       .  S
C550        C552   1.538       .  S
C550        H556   1.110       .  S
C551        H557   1.082       .  S
C551        C552   1.382       .  D
C553        H558   1.087       .  S
C553        C554   1.356       .  D
C554        C798   1.485       .  S
C559        C560   1.544       .  S
C559        C565   1.541   1_655  S
C559        C563   1.552       .  S
C559        C761   1.546   1_655  S
C560        H567   1.079       .  S
C560        C561   1.374       .  D
C561        C562   1.535       .  S
C561        C818   1.478       .  S
C562        C566   1.533   1_655  S
C562        C564   1.533       .  S
C562        H568   1.110       .  S
C563        H569   1.086       .  S
C563        C564   1.369       .  D
C565        H570   1.077       .  S
C565        C566   1.343       .  D
C566        C771   1.488       .  S
C571        C572   1.533   1_655  S
C571        C577   1.533       .  S
C571        C575   1.568       .  S
C571        C748   1.541       .  S
C572        H579   1.087       .  S
C572        C573   1.355       .  D
C573        C574   1.535   1_455  S
C573        C811   1.480       .  S
C574        C578   1.531       .  S
C574        C576   1.523       .  S
C574        H580   1.111       .  S
C575        H581   1.072       .  S
C575        C576   1.371       .  D
C577        H582   1.086       .  S
C577        C578   1.364       .  D
C578        C741   1.477       .  S
C583        C584   1.523       .  S
C583        C589   1.538       .  S
C583        C587   1.567       .  S
C583        C728   1.535       .  S
C584        H591   1.087       .  S
C584        C585   1.356       .  D
C585        C586   1.530       .  S
C585        C738   1.472       .  S
C586        C590   1.535       .  S
C586        C588   1.534       .  S
C586        H592   1.110       .  S
C587        H593   1.079       .  S
C587        C588   1.377       .  D
C589        H594   1.087       .  S
C589        C590   1.354       .  D
C590        C831   1.482       .  S
C595        C596   1.538       .  S
C595        C601   1.546       .  S
C595        C599   1.553       .  S
C595        C838   1.540       .  S
C596        H603   1.087       .  S
C596        C597   1.357       .  D
C597        C598   1.537       .  S
C597        C718   1.484       .  S
C598        C602   1.534       .  S
C598        C600   1.531       .  S
C598        H604   1.111       .  S
C599        H605   1.085       .  S
C599        C600   1.365       .  D
C601        H606   1.075       .  S
C601        C602   1.366       .  D
C602        C711   1.485       .  S
C607        C608   1.527       .  S
C607        C613   1.535       .  S
C607        C611   1.568       .  S
C607        C788   1.541       .  S
C608        H615   1.087       .  S
C608        C609   1.361       .  D
C609        C610   1.539       .  S
C609        C708   1.485       .  S
C610        C614   1.540       .  S
C610        C612   1.533       .  S
C610        H616   1.110       .  S
C611        H617   1.078       .  S
C611        C612   1.378       .  D
C613        H618   1.088       .  S
C613        C614   1.351       .  D
C614        C701   1.484       .  S
C619        C620   1.538       .  S
C619        C625   1.532       .  S
C619        C623   1.559       .  S
C619        C731   1.548       .  S
C620        H627   1.083       .  S
C620        C621   1.366       .  D
C621        C622   1.537       .  S
C621        C688   1.486       .  S
C622        C626   1.537       .  S
C622        C624   1.533       .  S
C622        H628   1.110       .  S
C623        H629   1.083       .  S
C623        C624   1.370       .  D
C625        H630   1.088       .  S
C625        C626   1.350       .  D
C626        C721   1.484       .  S
C631        C632   1.529       .  S
C631        C637   1.547       .  S
C631        C635   1.560       .  S
C631        C758   1.540       .  S
C632        H639   1.086       .  S
C632        C633   1.363       .  D
C633        C634   1.542       .  S
C633        C678   1.470       .  S
C634        C638   1.534       .  S
C634        C636   1.529       .  S
C634        H640   1.110       .  S
C635        H641   1.085       .  S
C635        C636   1.378       .  D
C637        H642   1.077       .  S
C637        C638   1.342       .  D
C638        C668   1.493       .  S
C643        C644   1.540       .  S
C643        C649   1.532       .  S
C643        C647   1.565       .  S
C643        C751   1.541       .  S
C644        H651   1.087       .  S
C644        C645   1.360       .  D
C645        C646   1.541       .  S
C645        C698   1.490       .  S
C646        C650   1.537       .  S
C646        C648   1.536       .  S
C646        H652   1.111       .  S
C647        H653   1.076       .  S
C647        C648   1.372       .  D
C649        H654   1.086       .  S
C649        C650   1.356       .  D
C650        C681   1.476       .  S
C655        C656   1.538       .  S
C655        C661   1.551       .  S
C655        C659   1.555       .  S
C655        C781   1.551       .  S
C656        H663   1.087       .  S
C656        C657   1.357       .  D
C657        C658   1.535       .  S
C657        C671   1.483       .  S
C658        C662   1.532       .  S
C658        C660   1.531       .  S
C658        H664   1.110       .  S
C659        H665   1.085       .  S
C659        C660   1.368       .  D
C661        H666   1.071       .  S
C661        C662   1.370       .  D
C662        C691   1.490       .  S
C667        C668   1.413       .  A
C667        C672   1.411       .  A
C667       Br674   1.924       .  S
C668        C669   1.420       .  A
C669        C670   1.401       .  A
C669       Br676   1.927       .  S
C670        C671   1.405       .  A
C670       Br675   1.928       .  S
C671        C672   1.408       .  A
C672       Br673   1.927       .  S
C677        C678   1.408       .  A
C677        C682   1.402       .  A
C677       Br684   1.929       .  S
C678        C679   1.404       .  A
C679        C680   1.403       .  A
C679       Br686   1.928       .  S
C680        C681   1.408       .  A
C680       Br685   1.917       .  S
C681        C682   1.409       .  A
C682       Br683   1.929       .  S
C687        C688   1.407       .  A
C687        C692   1.405       .  A
C687       Br694   1.927       .  S
C688        C689   1.415       .  A
C689        C690   1.407       .  A
C689       Br696   1.938       .  S
C690        C691   1.417       .  A
C690       Br695   1.936       .  S
C691        C692   1.410       .  A
C692       Br693   1.919       .  S
C697        C698   1.413       .  A
C697        C702   1.405       .  A
C697       Br704   1.931       .  S
C698        C699   1.410       .  A
C699        C700   1.409       .  A
C699       Br706   1.915       .  S
C700        C701   1.406       .  A
C700       Br705   1.928       .  S
C701        C702   1.414       .  A
C702       Br703   1.931       .  S
C707        C708   1.412       .  A
C707        C712   1.402       .  A
C707       Br714   1.937       .  S
C708        C709   1.408       .  A
C709        C710   1.409       .  A
C709       Br716   1.919       .  S
C710        C711   1.408       .  A
C710       Br715   1.926       .  S
C711        C712   1.417       .  A
C712       Br713   1.934       .  S
C717        C718   1.410       .  A
C717        C722   1.412       .  A
C717       Br724   1.928       .  S
C718        C719   1.409       .  A
C719        C720   1.402       .  A
C719       Br726   1.925       .  S
C720        C721   1.410       .  A
C720       Br725   1.928       .  S
C721        C722   1.412       .  A
C722       Br723   1.929       .  S
C727        C728   1.396       .  A
C727        C732   1.404       .  A
C727       Br734   1.931       .  S
C728        C729   1.416       .  A
C729        C730   1.407       .  A
C729       Br736   1.947       .  S
C730        C731   1.435       .  A
C730       Br735   1.943       .  S
C731        C732   1.441       .  A
C732       Br733   1.935       .  S
C737        C738   1.404       .  A
C737        C742   1.405       .  A
C737       Br744   1.922       .  S
C738        C739   1.409       .  A
C739        C740   1.399       .  A
C739       Br746   1.935       .  S
C740        C741   1.415       .  A
C740       Br745   1.935       .  S
C741        C742   1.409       .  A
C742       Br743   1.925       .  S
C747        C748   1.428       .  A
C747        C752   1.407       .  A
C747       Br754   1.932       .  S
C748        C749   1.409       .  A
C749        C750   1.401   1_655  A
C749       Br756   1.928       .  S
C750        C751   1.426       .  A
C750       Br755   1.932       .  S
C751        C752   1.413   1_455  A
C752       Br753   1.929       .  S
C757        C758   1.425       .  A
C757        C762   1.430   1_455  A
C757       Br764   1.929   1_455  S
C758        C759   1.405       .  A
C759        C760   1.379       .  A
C759       Br766   1.942       .  S
C760        C761   1.409       .  A
C760       Br765   1.927       .  S
C761        C762   1.425   1_455  A
C762       Br763   1.925       .  S
C767        C768   1.412       .  A
C767        C772   1.411       .  A
C767       Br774   1.925       .  S
C768        C769   1.410       .  A
C769        C770   1.402       .  A
C769       Br776   1.930       .  S
C770        C771   1.413       .  A
C770       Br775   1.923       .  S
C771        C772   1.414       .  A
C772       Br773   1.932       .  S
C777        C778   1.416       .  A
C777        C782   1.422       .  A
C777       Br784   1.929       .  S
C778        C779   1.420       .  A
C779        C780   1.400       .  A
C779       Br786   1.942       .  S
C780        C781   1.423       .  A
C780       Br785   1.935       .  S
C781        C782   1.424       .  A
C782       Br783   1.929       .  S
C787        C788   1.416       .  A
C787        C792   1.405       .  A
C787       Br794   1.943       .  S
C788        C789   1.401       .  A
C789        C790   1.407       .  A
C789       Br796   1.928       .  S
C790        C791   1.434       .  A
C790       Br795   1.934       .  S
C791        C792   1.431       .  A
C792       Br793   1.942       .  S
C797        C798   1.405       .  A
C797        C802   1.407       .  A
C797       Br804   1.923       .  S
C798        C799   1.413       .  A
C799        C800   1.407       .  A
C799       Br806   1.935       .  S
C800        C801   1.416       .  A
C800       Br805   1.935       .  S
C801        C802   1.411       .  A
C802       Br803   1.921   1_545  S
C807        C808   1.411       .  A
C807        C812   1.408       .  A
C807       Br814   1.927       .  S
C808        C809   1.410       .  A
C809        C810   1.401       .  A
C809       Br816   1.930       .  S
C810        C811   1.412       .  A
C810       Br815   1.931       .  S
C811        C812   1.407       .  A
C812       Br813   1.927       .  S
C817        C818   1.412       .  A
C817        C822   1.404       .  A
C817       Br824   1.935       .  S
C818        C819   1.410       .  A
C819        C820   1.403       .  A
C819       Br826   1.922       .  S
C820        C821   1.405       .  A
C820       Br825   1.923   1_545  S
C821        C822   1.412       .  A
C822       Br823   1.935       .  S
C827        C828   1.413       .  A
C827        C832   1.408       .  A
C827       Br834   1.925       .  S
C828        C829   1.412       .  A
C829        C830   1.403       .  A
C829       Br836   1.928       .  S
C830        C831   1.411       .  A
C830       Br835   1.930       .  S
C831        C832   1.408       .  A
C832       Br833   1.928       .  S
C837        C838   1.424       .  A
C837        C842   1.419       .  A
C837       Br844   1.929       .  S
C838        C839   1.420       .  A
C839        C840   1.395       .  A
C839       Br846   1.941       .  S
C840        C841   1.421       .  A
C840       Br845   1.939       .  S
C841        C842   1.412       .  A
C842       Br843   1.926       .  S
C847        C848   1.410       .  A
C847        C852   1.415       .  A
C847       Br854   1.923       .  S
C848        C849   1.414       .  A
C849        C850   1.407       .  A
C849       Br856   1.934       .  S
C850        C851   1.419       .  A
C850       Br855   1.937       .  S
C851        C852   1.413       .  A
C852       Br853   1.923       .  S
C857        C858   1.410       .  A
C857        C862   1.410       .  A
C857       Br864   1.927       .  S
C858        C859   1.415       .  A
C859        C860   1.405       .  A
C859       Br866   1.928       .  S
C860        C861   1.408       .  A
C860       Br865   1.933       .  S
C861        C862   1.409       .  A
C862       Br863   1.927       .  S
C867        C868   1.406       .  A
C867        C872   1.406       .  A
C867       Br874   1.925       .  S
C868        C869   1.412       .  A
C869        C870   1.400       .  A
C869       Br876   1.929       .  S
C870        C871   1.406       .  A
C870       Br875   1.933       .  S
C871        C872   1.409       .  A
C872       Br873   1.927       .  S
C877        C878   1.421       .  A
C877        C882   1.398       .  A
C877       Br884   1.928       .  S
C878        C879   1.408       .  A
C879        C880   1.412       .  A
C879       Br886   1.924       .  S
C880        C881   1.409       .  A
C880       Br885   1.916       .  S
C881        C882   1.404       .  A
C882       Br883   1.927       .  S
C887        C888   1.408       .  A
C887        C892   1.404       .  A
C887       Br894   1.927       .  S
C888        C889   1.408       .  A
C889        C890   1.400       .  A
C889       Br896   1.931       .  S
C890        C891   1.409       .  A
C890       Br895   1.930       .  S
C891        C892   1.406       .  A
C892       Br893   1.926       .  S
C897        C898   1.418       .  A
C897        C902   1.411       .  A
C897       Br904   1.938       .  S
C898        C899   1.415       .  A
C899        C900   1.415       .  A
C899       Br906   1.922       .  S
C900        C901   1.411       .  A
C900       Br905   1.925       .  S
C901        C902   1.420       .  A
C902       Br903   1.938       .  S
C907        C908   1.421       .  A
C907        C912   1.401       .  A
C907       Br914   1.943       .  S
C908        C909   1.416       .  A
C909        C910   1.420       .  A
C909       Br916   1.928       .  S
C910        C911   1.422       .  A
C910       Br915   1.931       .  S
C911        C912   1.421       .  A
C912       Br913   1.931       .  S
C917        C918   1.408       .  A
C917        C922   1.409       .  A
C917       Br924   1.926       .  S
C918        C919   1.403       .  A
C919        C920   1.395       .  A
C919       Br926   1.932       .  S
C920        C921   1.412       .  A
C920       Br925   1.916       .  S
C921        C922   1.418       .  A
C922       Br923   1.932       .  S
C927        C928   1.414       .  A
C927        C932   1.379       .  A
C927       Br934   1.930       .  S
C928        C929   1.420       .  A
C929        C930   1.427       .  A
C929       Br936   1.924   1_655  S
C930        C931   1.426       .  A
C930       Br935   1.929       .  S
C931        C932   1.403       .  A
C932       Br933   1.943       .  S
C937        C938   1.414       .  A
C937        C942   1.405       .  A
C937       Br944   1.934       .  S
C938        C939   1.405       .  A
C939        C940   1.402       .  A
C939       Br946   1.924       .  S
C940        C941   1.411       .  A
C940       Br945   1.923       .  S
C941        C942   1.411       .  A
C942       Br943   1.935       .  S
C947        C948   1.433       .  A
C947        C952   1.412       .  A
C947       Br954   1.938       .  S
C948        C949   1.437       .  A
C949        C950   1.408       .  A
C949       Br956   1.937   1_565  S
C950        C951   1.402       .  A
C950       Br955   1.929       .  S
C951        C952   1.420       .  A
C952       Br953   1.945       .  S
C957        C958   1.410       .  A
C957        C962   1.414       .  A
C957       Br964   1.927       .  S
C958        C959   1.411       .  A
C959        C960   1.405       .  A
C959       Br966   1.932       .  S
C960        C961   1.414       .  A
C960       Br965   1.929       .  S
C961        C962   1.414       .  A
C962       Br963   1.928   1_545  S
C967        C968   1.413       .  A
C967        C972   1.405       .  A
C967       Br974   1.929       .  S
C968        C969   1.429       .  A
C969        C970   1.403       .  A
C969       Br976   1.932       .  S
C970        C971   1.406       .  A
C970       Br975   1.930       .  S
C971        C972   1.424       .  A
C972       Br973   1.935       .  S
C977        C978   1.410       .  A
C977        C982   1.405       .  A
C977       Br984   1.928       .  S
C978        C979   1.422       .  A
C979        C980   1.403       .  A
C979       Br986   1.930   1_655  S
C980        C981   1.414       .  A
C980       Br985   1.931       .  S
C981        C982   1.423       .  A
C982       Br983   1.930       .  S
C987        C988   1.414       .  A
C987        C992   1.405       .  A
C987       Br994   1.934       .  S
C988        C989   1.408       .  A
C989        C990   1.407       .  A
C989       Br996   1.921       .  S
C990        C991   1.405       .  A
C990       Br995   1.922       .  S
C991        C992   1.412       .  A
C992       Br993   1.934       .  S
C997        C998   1.422       .  A
C997       C1002   1.406       .  A
C997      Br1004   1.929       .  S
C998        C999   1.408       .  A
C999       C1000   1.403       .  A
C999      Br1006   1.929       .  S
C1000      C1001   1.425       .  A
C1000     Br1005   1.932       .  S
C1001      C1002   1.413       .  A
C1002     Br1003   1.929       .  S
C1007      C1008   1.412       .  A
C1007      C1012   1.411       .  A
C1007     Br1014   1.925       .  S
C1008      C1009   1.414       .  A
C1009      C1010   1.403       .  A
C1009     Br1016   1.931       .  S
C1010      C1011   1.409       .  A
C1010     Br1015   1.931       .  S
C1011      C1012   1.408       .  A
C1012     Br1013   1.928       .  S
C1017      C1018   1.410       .  A
C1017      C1022   1.406       .  A
C1017     Br1024   1.923       .  S
C1018      C1019   1.412       .  A
C1019      C1020   1.399       .  A
C1019     Br1026   1.936       .  S
C1020      C1021   1.410       .  A
C1020     Br1025   1.934       .  S
C1021      C1022   1.406       .  A
C1022     Br1023   1.926       .  S
C1027      C1028   1.397       .  A
C1027      C1032   1.387       .  A
C1027     Br1034   1.921       .  S
C1028      C1029   1.414       .  A
C1029      C1030   1.416       .  A
C1029     Br1036   1.927       .  S
C1030      C1031   1.417       .  A
C1030     Br1035   1.929       .  S
C1031      C1032   1.409       .  A
C1032     Br1033   1.906       .  S
C1037      C1038   1.409       .  A
C1037      C1042   1.400       .  A
C1037     Br1044   1.932       .  S
C1038      C1039   1.407       .  A
C1039      C1040   1.404       .  A
C1039     Br1046   1.924       .  S
C1040      C1041   1.405       .  A
C1040     Br1045   1.923       .  S
C1041      C1042   1.412       .  A
C1042     Br1043   1.931       .  S
C1047      C1048   1.408       .  A
C1047      C1052   1.413       .  A
C1047     Br1054   1.925   1_554  S
C1048      C1049   1.409       .  A
C1049      C1050   1.404       .  A
C1049     Br1056   1.932       .  S
C1050      C1051   1.416       .  A
C1050     Br1055   1.930       .  S
C1051      C1052   1.411       .  A
C1052     Br1053   1.920       .  S
C1057      C1058   1.408       .  A
C1057      C1062   1.410       .  A
C1057     Br1064   1.917       .  S
C1058      C1059   1.409       .  A
C1059      C1060   1.402       .  A
C1059     Br1066   1.921       .  S
C1060      C1061   1.412       .  A
C1060     Br1065   1.931       .  S
C1061      C1062   1.408       .  A
C1062     Br1063   1.917       .  S
C1067      C1068   1.412       .  A
C1067      C1072   1.402       .  A
C1067     Br1074   1.932       .  S
C1068      C1069   1.406       .  A
C1069      C1070   1.403       .  A
C1069     Br1076   1.921       .  S
C1070      C1071   1.405       .  A
C1070     Br1075   1.927       .  S
C1071      C1072   1.408       .  A
C1072     Br1073   1.933       .  S
C1077      C1078   1.411       .  A
C1077      C1082   1.403       .  A
C1077     Br1084   1.925       .  S
C1078      C1079   1.412       .  A
C1079      C1080   1.413       .  A
C1079     Br1086   1.925       .  S
C1080      C1081   1.410       .  A
C1080     Br1085   1.925       .  S
C1081      C1082   1.412       .  A
C1082     Br1083   1.929       .  S
C1087      C1088   1.419       .  A
C1087      C1092   1.400   1_655  A
C1087     Br1094   1.935       .  S
C1088      C1089   1.419   1_556  A
C1089      C1090   1.417   1_655  A
C1089     Br1096   1.931       .  S
C1090      C1091   1.417       .  A
C1090     Br1095   1.930       .  S
C1091      C1092   1.422   1_554  A
C1092     Br1093   1.944       .  S
C1097      C1098   1.416       .  A
C1097      C1102   1.422   1_655  A
C1097     Br1104   1.927   1_554  S
C1098      C1099   1.425       .  A
C1099      C1100   1.401       .  A
C1099     Br1106   1.946       .  S
C1100      C1101   1.420   1_655  A
C1100     Br1105   1.933       .  S
C1101      C1102   1.423       .  A
C1102     Br1103   1.931       .  S
C1107      C1108   1.407   1_554  A
C1107      C1112   1.408       .  A
C1107     Br1114   1.923       .  S
C1108      C1109   1.411       .  A
C1109      C1110   1.401       .  A
C1109     Br1116   1.926       .  S
C1110      C1111   1.410       .  A
C1110     Br1115   1.929       .  S
C1111      C1112   1.411   1_556  A
C1112     Br1113   1.926       .  S
C1117      C1118   1.421       .  A
C1117      C1122   1.405       .  A
C1117     Br1124   1.938   1_565  S
C1118      C1119   1.400       .  A
C1119      C1120   1.405       .  A
C1119     Br1126   1.927   1_554  S
C1120      C1121   1.432       .  A
C1120     Br1125   1.936   1_554  S
C1121      C1122   1.421       .  A
C1122     Br1123   1.940       .  S
C1127      C1128   1.413       .  A
C1127      C1132   1.403       .  A
C1127     Br1134   1.937       .  S
C1128      C1129   1.412   1_556  A
C1129      C1130   1.405       .  A
C1129     Br1136   1.922       .  S
C1130      C1131   1.406   1_554  A
C1130     Br1135   1.927       .  S
C1131      C1132   1.414       .  A
C1132     Br1133   1.936       .  S
C1137      C1138   1.408   1_554  A
C1137      C1142   1.403       .  A
C1137     Br1144   1.918       .  S
C1138      C1139   1.411       .  A
C1139      C1140   1.399       .  A
C1139     Br1146   1.931       .  S
C1140      C1141   1.410       .  A
C1140     Br1145   1.930       .  S
C1141      C1142   1.406   1_556  A
C1142     Br1143   1.931       .  S
C1147      C1148   1.421       .  A
C1147      C1152   1.416       .  A
C1147     Br1154   1.929       .  S
C1148      C1149   1.422       .  A
C1149      C1150   1.393       .  A
C1149     Br1156   1.945       .  S
C1150      C1151   1.420       .  A
C1150     Br1155   1.944   1_565  S
C1151      C1152   1.414       .  A
C1152     Br1153   1.931   1_554  S
C1157      C1158   1.407       .  A
C1157      C1162   1.396       .  A
C1157     Br1164   1.931       .  S
C1158      C1159   1.405   1_556  A
C1159      C1160   1.400       .  A
C1159     Br1166   1.929       .  S
C1160      C1161   1.407   1_554  A
C1160     Br1165   1.921       .  S
C1161      C1162   1.409       .  A
C1162     Br1163   1.931       .  S
C1167      C1168   1.417       .  A
C1167      C1172   1.415       .  A
C1167     Br1174   1.929       .  S
C1168      C1169   1.422       .  A
C1169      C1170   1.396       .  A
C1169     Br1176   1.938       .  S
C1170      C1171   1.419       .  A
C1170     Br1175   1.943       .  S
C1171      C1172   1.417       .  A
C1172     Br1173   1.931   1_554  S
C1177      C1178   1.407       .  A
C1177      C1182   1.403       .  A
C1177     Br1184   1.933       .  S
C1178      C1179   1.407   1_556  A
C1179      C1180   1.407       .  A
C1179     Br1186   1.927       .  S
C1180      C1181   1.407   1_554  A
C1180     Br1185   1.921       .  S
C1181      C1182   1.415       .  A
C1182     Br1183   1.929       .  S
C1187      C1188   1.422       .  A
C1187      C1192   1.402       .  A
C1187     Br1194   1.935       .  S
C1188      C1189   1.411   1_556  A
C1189      C1190   1.413       .  A
C1189     Br1196   1.928       .  S
C1190      C1191   1.411   1_554  A
C1190     Br1195   1.922       .  S
C1191      C1192   1.409       .  A
C1192     Br1193   1.939       .  S
C1197      C1198   1.409   1_556  A
C1197      C1202   1.403   1_556  A
C1197     Br1204   1.930       .  S
C1198      C1199   1.425       .  A
C1199      C1200   1.407       .  A
C1199     Br1206   1.931       .  S
C1200      C1201   1.412       .  A
C1200     Br1205   1.928       .  S
C1201      C1202   1.427       .  A
C1202     Br1203   1.935   1_554  S
