geometry optimzed in LAMMPS
_audit_creation_date              2020-11-30 
_audit_creation_method            'lammps2cif' 
_symmetry_space_group_name_H-M    'P1' 
_symmetry_Int_Tables_number       1 
_symmetry_cell_setting            triclinic 
loop_ 
_symmetry_equiv_pos_as_xyz 
  x,y,z 
_cell_length_a                    38.29987944 
_cell_length_b                    38.11590955532591 
_cell_length_c                    38.26332435090004 
_cell_angle_alpha                 89.76532641453865 
_cell_angle_beta                  90.2295897433568 
_cell_angle_gamma                 89.75141326361026 
loop_ 
_atom_site_label 
_atom_site_type_symbol 
_atom_site_fract_x 
_atom_site_fract_y 
_atom_site_fract_z 
_atom_site_charge 
C1          C  0.60828938  0.61366972  0.66096379     0.88300
C2          C  0.60058332  0.65183769  0.65061349    -0.51900
C3          C  0.60734027  0.65897274  0.61632926     0.11200
C4          C  0.62117683  0.62735027  0.59555698     0.22200
C5          C  0.58689551  0.59142554  0.63545361    -0.52600
C6          C  0.59371833  0.59858323  0.60122340     0.11300
C7          C  0.64648057  0.60734248  0.65078913    -0.52200
C8          C  0.65316056  0.61448250  0.61649668     0.11900
H9          H  0.59061271  0.67136814  0.66866175     0.16400
H10         H  0.62666654  0.63313380  0.56762344     0.02200
H11         H  0.56822401  0.57168871  0.64368341     0.16700
H12         H  0.66628805  0.59770936  0.66887989     0.16500
C13         C  0.92333223  0.11261176  0.66540651     0.88300
C14         C  0.88538400  0.10759987  0.65364412    -0.51900
C15         C  0.87998067  0.11534440  0.61921351     0.11200
C16         C  0.91284787  0.12746260  0.59971848     0.22200
C17         C  0.94503071  0.09002346  0.64047674    -0.52600
C18         C  0.93945413  0.09778553  0.60610212     0.11300
C19         C  0.93218667  0.15066431  0.65589006    -0.52200
C20         C  0.92666872  0.15839600  0.62143134     0.11900
H21         H  0.86482575  0.09826687  0.67077717     0.16400
H22         H  0.90835197  0.13371357  0.57165477     0.02200
H23         H  0.96283415  0.06946579  0.64917841     0.16700
H24         H  0.94195633  0.16966730  0.67458109     0.16500
C25         C  0.11749996  0.60692101  0.86683389     0.88300
C26         C  0.15523905  0.60107795  0.87911547    -0.51900
C27         C  0.16049931  0.60932586  0.91341673     0.11200
C28         C  0.12759263  0.62273037  0.93223776     0.22200
C29         C  0.09508455  0.58547489  0.89213329    -0.52600
C30         C  0.10034685  0.59381724  0.92634015     0.11300
C31         C  0.10923739  0.64536409  0.87528308    -0.52200
C32         C  0.11448023  0.65358028  0.90958137     0.11900
H33         H  0.17576526  0.59089216  0.86241056     0.16400
H34         H  0.13180689  0.62943147  0.96017762     0.02200
H35         H  0.07647049  0.56574809  0.88375054     0.16700
H36         H  0.09956869  0.66416350  0.85609664     0.16500
C37         C  0.36769399  0.42331878  0.41966165     0.88300
C38         C  0.37822269  0.38561517  0.42906301    -0.51900
C39         C  0.41257556  0.37853043  0.42295802     0.11200
C40         C  0.43325226  0.40966229  0.40809326     0.22200
C41         C  0.39270284  0.44667538  0.44042400    -0.52600
C42         C  0.42703578  0.43949209  0.43431515     0.11300
C43         C  0.37819491  0.42807598  0.38133657    -0.52200
C44         C  0.41256259  0.42087579  0.37536009     0.11900
H45         H  0.36021324  0.36630352  0.43949238     0.16400
H46         H  0.46125579  0.40382904  0.40314143     0.02200
H47         H  0.38408304  0.46704111  0.45825670     0.16700
H48         H  0.36020965  0.43644234  0.36087513     0.16500
C49         C  0.60448434  0.87387950  0.10950673     0.88300
C50         C  0.60006539  0.88603211  0.14738772    -0.51900
C51         C  0.61037873  0.91981711  0.15274685     0.11200
C52         C  0.62420790  0.93835796  0.11979665     0.22200
C53         C  0.58423967  0.90078626  0.08739939    -0.52600
C54         C  0.59459588  0.93453678  0.09279505     0.11300
C55         C  0.64303835  0.88022230  0.10097035    -0.52200
C56         C  0.65334414  0.91399673  0.10636460     0.11900
H57         H  0.58949739  0.86955943  0.16800083     0.16400
H58         H  0.63259755  0.96587934  0.12415478     0.02200
H59         H  0.56373120  0.89379502  0.06902944     0.16700
H60         H  0.66054529  0.85992370  0.09144343     0.16500
C61         C  0.92497457  0.37155293  0.11036867     0.88300
C62         C  0.88707374  0.37954085  0.09998556    -0.51900
C63         C  0.87780091  0.41377094  0.10475106     0.11200
C64         C  0.90723910  0.43689006  0.11946112     0.22200
C65         C  0.94704362  0.39735789  0.08917935    -0.52600
C66         C  0.93778398  0.43155528  0.09399157     0.11300
C67         C  0.92834966  0.38365318  0.14837748    -0.52200
C68         C  0.91905783  0.41790386  0.15308915     0.11900
H69         H  0.86922686  0.35996952  0.08977848     0.16400
H70         H  0.89971491  0.46479557  0.12333511     0.02200
H71         H  0.96816417  0.38934818  0.07204376     0.16700
H72         H  0.93752326  0.36683308  0.16952674     0.16500
C73         C  0.36950909  0.11135563  0.91363647     0.88300
C74         C  0.37894132  0.10254631  0.87571877    -0.51900
C75         C  0.41286857  0.10973138  0.86758009     0.13600
C76         C  0.43419502  0.12516879  0.89808742     0.22200
C77         C  0.39611486  0.09114465  0.93608071    -0.52600
C78         C  0.42994286  0.09846034  0.92798663     0.11300
C79         C  0.37907629  0.15010856  0.91817937    -0.52200
C80         C  0.41299518  0.15729999  0.91014702     0.11900
H81         H  0.36062993  0.09130592  0.85716505     0.16400
H82         H  0.46182471  0.13103318  0.89158477     0.02200
H83         H  0.38887211  0.07300673  0.95677975     0.16700
H84         H  0.36097537  0.16985252  0.92774863     0.16500
C85         C  0.16561711  0.92183584  0.42870281     0.88300
C86         C  0.15659393  0.92842455  0.39018949    -0.51900
C87         C  0.12266050  0.92134696  0.38210820     0.11200
C88         C  0.10085783  0.90820166  0.41318485     0.22200
C89         C  0.13930104  0.94389346  0.44929211    -0.52600
C90         C  0.10540457  0.93673235  0.44111903     0.11300
C91         C  0.15544150  0.88360124  0.43576515    -0.52200
C92         C  0.12147107  0.87650117  0.42765102     0.11900
H93         H  0.17516623  0.93829614  0.37117420     0.16400
H94         H  0.07318744  0.90245521  0.40657329     0.02200
H95         H  0.14676358  0.96345793  0.46847256     0.16700
H96         H  0.17331220  0.86405818  0.44643036     0.16500
Zn97       Zn  0.05918785  0.98301405  0.03644418     1.49700
Zn98       Zn  0.98994483  0.02089435  0.06550023     1.49400
Zn99       Zn  0.02818907  0.05023190  0.99697016     1.49100
Zn100      Zn  0.98635084  0.97727623  0.99410682     1.49500
O101        O  0.01588614  0.00774491  0.02325398    -1.82300
O102        O  0.06298328  0.97782760  0.08897893    -0.72900
O103        O  0.98485530  0.07354272  0.06921124    -0.72800
O104        O  0.08029042  0.05445870  0.99018277    -0.72300
O105        O  0.01481110  0.00370861  0.10893531    -0.72900
O106        O  0.10222247  0.00852830  0.01895835    -0.72500
O107        O  0.01183830  0.09370511  0.02183010    -0.73100
O108        O  0.97700207  0.99967164  0.94684561    -0.72500
O109        O  0.94149037  0.00002506  0.06557315    -0.73300
O110        O  0.00572306  0.05027402  0.94935096    -0.72700
O111        O  0.93928657  0.96858469  0.01673305    -0.73100
O112        O  0.01000219  0.93036679  0.98606473    -0.73000
O113        O  0.06013519  0.93445796  0.01548518    -0.72800
C114        C  0.04334502  0.98723193  0.11404555     0.79000
C115        C  0.99500004  0.09876284  0.04993934     0.79400
C116        C  0.10617402  0.03616182  0.00062094     0.78400
C117        C  0.98637961  0.02863633  0.93321016     0.78800
C118        C  0.92534560  0.97979364  0.04472498     0.79900
C119        C  0.03906113  0.91745451  0.99620290     0.79000
Zn120      Zn  0.55463238  0.05273051  0.48159490     1.49700
Zn121      Zn  0.51361718  0.97975087  0.48420808     1.49400
Zn122      Zn  0.55374623  0.00699787  0.55283193     1.49100
Zn123      Zn  0.48439959  0.04624922  0.52661424     1.49500
O124        O  0.52666844  0.02140594  0.51133945    -1.82300
O125        O  0.56212408  0.03219433  0.43350552    -0.72900
O126        O  0.53148511  0.93538782  0.50732321    -0.72800
O127        O  0.60189360  0.02839847  0.55148976    -0.72300
O128        O  0.53362754  0.98148204  0.43536199    -0.72900
O129        O  0.60215123  0.06086602  0.50293096    -0.72500
O130        O  0.55937679  0.95406604  0.55487124    -0.73100
O131        O  0.48239664  0.05040671  0.57922351    -0.72500
O132        O  0.46120996  0.97591811  0.47984755    -0.73300
O133        O  0.53053360  0.02313077  0.59777811    -0.72700
O134        O  0.44104288  0.02135317  0.51023975    -0.73100
O135        O  0.48244505  0.09522486  0.50667440    -0.73000
O136        O  0.53103846  0.09988367  0.47530583    -0.72800
C137        C  0.55221855  0.00383314  0.41921491     0.79000
C138        C  0.54914118  0.92943018  0.53496986     0.79400
C139        C  0.61705400  0.04923504  0.53042687     0.78400
C140        C  0.50248941  0.04010665  0.60378879     0.78800
C141        C  0.43606902  0.99419811  0.49170320     0.79900
C142        C  0.50261974  0.11264125  0.48688023     0.79000
Zn143      Zn  0.55716853  0.53852910  0.00796790     1.49700
Zn144      Zn  0.48597713  0.53735862  0.05188628     1.49400
Zn145      Zn  0.48901111  0.50094763  0.97637629     1.49100
Zn146      Zn  0.53046427  0.46612060  0.04076071     1.49500
O147        O  0.51558289  0.51074458  0.01927511    -1.82300
O148        O  0.55551807  0.58598987  0.03113186    -0.72900
O149        O  0.43760910  0.54572599  0.03167225    -0.72800
O150        O  0.51324424  0.52141148  0.93414930    -0.72300
O151        O  0.50645467  0.58525358  0.06209465    -0.72900
O152        O  0.56068797  0.54694152  0.95602905    -0.72500
O153        O  0.44046847  0.52205034  0.97866465    -0.73100
O154        O  0.51321895  0.42450656  0.01306445    -0.72500
O155        O  0.48102143  0.51106074  0.09760864    -0.73300
O156        O  0.48387330  0.44859912  0.96867087    -0.72700
O157        O  0.51131026  0.46172039  0.08954698    -0.73100
O158        O  0.58311591  0.46279225  0.04467214    -0.73000
O159        O  0.60145310  0.51396117  0.02356753    -0.72800
C160        C  0.53393312  0.60068512  0.05164043     0.79000
C161        C  0.42385687  0.53858775  0.00222125     0.79400
C162        C  0.54129687  0.53875337  0.93028969     0.78400
C163        C  0.49497608  0.42179114  0.98534809     0.78800
C164        C  0.49246096  0.48152984  0.10843474     0.79900
C165        C  0.60752765  0.48406615  0.03724134     0.79000
Zn166      Zn  0.99583663  0.56019996  0.53716021     1.49700
Zn167      Zn  0.03817006  0.48719669  0.53770293     1.49400
Zn168      Zn  0.96494602  0.49294644  0.49727206     1.49100
Zn169      Zn  0.03200952  0.53288179  0.46705026     1.49500
O170        O  0.00773343  0.51830439  0.50982768    -1.82300
O171        O  0.01817886  0.55808413  0.58506949    -0.72900
O172        O  0.01628606  0.43950808  0.54488109    -0.72800
O173        O  0.92226991  0.51790258  0.51577350    -0.72300
O174        O  0.04810399  0.50786469  0.58523279    -0.72900
O175        O  0.94356004  0.56469413  0.54311999    -0.72500
O176        O  0.96539010  0.44352612  0.51683642    -0.73100
O177        O  0.00556615  0.51793683  0.42390395    -0.72500
O178        O  0.08442045  0.47977122  0.51383740    -0.73300
O179        O  0.95944989  0.48953295  0.44487359    -0.72700
O180        O  0.07997421  0.51117537  0.46480769    -0.73100
O181        O  0.03825777  0.58546488  0.46495841    -0.73000
O182        O  0.01314167  0.60450083  0.51370582    -0.72800
C183        C  0.03830176  0.53601087  0.60009465     0.79000
C184        C  0.98747100  0.42624878  0.53501413     0.79400
C185        C  0.91797906  0.54594672  0.53319147     0.78400
C186        C  0.97748442  0.50081473  0.41937839     0.78800
C187        C  0.09702922  0.49096027  0.48521141     0.79900
C188        C  0.02953731  0.61019879  0.48540459     0.79000
C189        C  0.33591426  0.96633786  0.46860881     0.18800
C190        C  0.32423640  0.96696342  0.43385614    -0.10300
C191        C  0.28988357  0.95750285  0.42585013    -0.11100
C192        C  0.26708098  0.94736712  0.45256216     0.20400
C193        C  0.27871512  0.94688844  0.48732130    -0.13200
C194        C  0.31306228  0.95634783  0.49532708    -0.11400
C195        C  0.23175281  0.93761081  0.44433860     0.01400
C196        C  0.20203095  0.92993671  0.43738842    -0.31400
C197        C  0.37130386  0.97589773  0.47684879     0.02700
C198        C  0.40092135  0.98403463  0.48371903    -0.33100
H199        H  0.34166965  0.97470290  0.41299912     0.13800
H200        H  0.28112460  0.95805193  0.39889044     0.13600
H201        H  0.26127151  0.93918133  0.50818136     0.13500
H202        H  0.32180333  0.95582944  0.52229121     0.12500
C203        C  0.05907042  0.71029705  0.46121639     0.18800
C204        C  0.07722992  0.71707075  0.43019096    -0.10300
C205        C  0.08883835  0.75104538  0.42265437    -0.11100
C206        C  0.08234467  0.77846153  0.44608922     0.20400
C207        C  0.06410829  0.77170362  0.47707011    -0.13200
C208        C  0.05250112  0.73773201  0.48460668    -0.11400
C209        C  0.09497972  0.81330797  0.43871298     0.01400
C210        C  0.10641222  0.84226849  0.43317285    -0.31400
C211        C  0.04773983  0.67515344  0.46933368     0.02700
C212        C  0.03894655  0.64559842  0.47647936    -0.33100
H213        H  0.08256801  0.69607764  0.41194102     0.13800
H214        H  0.10301287  0.75589257  0.39868389     0.13600
H215        H  0.05903065  0.79263570  0.49546231     0.13500
H216        H  0.03858853  0.73282801  0.50872000     0.12500
C217        C  0.07123308  0.96232482  0.21426057     0.18800
C218        C  0.04727900  0.96709096  0.24145447    -0.10300
C219        C  0.05635918  0.95772875  0.27572556    -0.11100
C220        C  0.08942357  0.94351618  0.28295151     0.20400
C221        C  0.11341897  0.93889223  0.25577792    -0.13200
C222        C  0.10434418  0.94825036  0.22152385    -0.11400
C223        C  0.09907507  0.93429758  0.31824935     0.01400
C224        C  0.10869302  0.92753257  0.34757648    -0.31400
C225        C  0.06174347  0.97152250  0.17890560     0.02700
C226        C  0.05357493  0.97883931  0.14926336    -0.33100
H227        H  0.02160722  0.97797244  0.23615630     0.13800
H228        H  0.03766016  0.96158651  0.29654170     0.13600
H229        H  0.13912575  0.92809056  0.26107881     0.13500
H230        H  0.12308626  0.94446541  0.20073096     0.12500
C231        C  0.46955567  0.32341512  0.95156866     0.18800
C232        C  0.44190704  0.31870756  0.92795833    -0.10300
C233        C  0.43210841  0.28488122  0.91781930    -0.11100
C234        C  0.44990229  0.25551248  0.93118783     0.20400
C235        C  0.47771029  0.26021214  0.95462809    -0.13200
C236        C  0.48751519  0.29405507  0.96477133    -0.11400
C237        C  0.43871130  0.22063806  0.92190747     0.01400
C238        C  0.42786838  0.19164786  0.91547021    -0.31400
C239        C  0.47899137  0.35825862  0.96276179     0.02700
C240        C  0.48644868  0.38734557  0.97269730    -0.33100
H241        H  0.42774471  0.34115120  0.91762709     0.13800
H242        H  0.41045017  0.28161623  0.89984235     0.13600
H243        H  0.49156202  0.23773872  0.96531247     0.13500
H244        H  0.50887099  0.29730943  0.98310843     0.12500
C245        C  0.45027848  0.08534218  0.77032065     0.18800
C246        C  0.43221974  0.09721841  0.74056209    -0.10300
C247        C  0.44350062  0.08756974  0.70714870    -0.11100
C248        C  0.47291893  0.06593337  0.70318954     0.20400
C249        C  0.49101381  0.05407855  0.73293752    -0.13200
C250        C  0.47972613  0.06373343  0.76637069    -0.11400
C251        C  0.48436929  0.05593891  0.66864521     0.01400
C252        C  0.49316366  0.04819881  0.63932866    -0.31400
C253        C  0.43824234  0.09485236  0.80480866     0.02700
C254        C  0.42732511  0.10218375  0.83350657    -0.33100
H255        H  0.40937317  0.11383861  0.74318883     0.13800
H256        H  0.42924335  0.09692215  0.68441396     0.13600
H257        H  0.51377119  0.03734051  0.73029752     0.13500
H258        H  0.49388668  0.05427102  0.78911793     0.12500
C259        C  0.26960659  0.08641383  0.94443546     0.18800
C260        C  0.25527608  0.10266261  0.97394336    -0.10300
C261        C  0.22232131  0.09268101  0.98617142    -0.11100
C262        C  0.20350025  0.06635165  0.96899425     0.20400
C263        C  0.21779670  0.05021889  0.93942435    -0.13200
C264        C  0.25072405  0.06019410  0.92720619    -0.11400
C265        C  0.16952989  0.05590317  0.98148381     0.01400
C266        C  0.14083693  0.04687343  0.99091201    -0.31400
C267        C  0.30393643  0.09603465  0.93232092     0.02700
C268        C  0.33315521  0.10335184  0.92304962    -0.33100
H269        H  0.26962625  0.12290193  0.98756618     0.13800
H270        H  0.21157901  0.10540911  0.00902388     0.13600
H271        H  0.20352973  0.02987595  0.92586993     0.13500
H272        H  0.26151592  0.04735633  0.90443709     0.12500
C273        C  0.94730437  0.47847478  0.31951817     0.18800
C274        C  0.96451205  0.49430727  0.29134998    -0.10300
C275        C  0.95653580  0.48443622  0.25705998    -0.11100
C276        C  0.93128945  0.45869690  0.25076010     0.20400
C277        C  0.91365203  0.44329576  0.27890366    -0.13200
C278        C  0.92162949  0.45316714  0.31319751    -0.11400
C279        C  0.92500814  0.44659624  0.21567774     0.01400
C280        C  0.92138947  0.43459956  0.18676739    -0.31400
C281        C  0.95694661  0.48720516  0.35485348     0.02700
C282        C  0.96595144  0.49374162  0.38436092    -0.33100
H283        H  0.98447829  0.51383190  0.29591828     0.13800
H284        H  0.97048597  0.49637885  0.23553522     0.13600
H285        H  0.89422717  0.42321900  0.27437084     0.13500
H286        H  0.90822119  0.44067343  0.33476326     0.12500
C287        C  0.77809519  0.44331064  0.07957749     0.18800
C288        C  0.77076346  0.46311315  0.04946064    -0.10300
C289        C  0.73612593  0.47067704  0.04018184    -0.11100
C290        C  0.70862908  0.45843480  0.06094302     0.20400
C291        C  0.71597509  0.43853282  0.09098332    -0.13200
C292        C  0.75059300  0.43097579  0.10025749    -0.11400
C293        C  0.67295301  0.46673456  0.05180851     0.01400
C294        C  0.64305619  0.47424168  0.04483563    -0.31400
C295        C  0.81370738  0.43500092  0.08891286     0.02700
C296        C  0.84319814  0.42651262  0.09645456    -0.33100
H297        H  0.79178443  0.47266112  0.03317173     0.13800
H298        H  0.73079648  0.48610913  0.01691054     0.13600
H299        H  0.69496498  0.42893987  0.10726093     0.13500
H300        H  0.75590900  0.41550730  0.12350966     0.12500
C301        C  0.97186605  0.19987713  0.07590874     0.18800
C302        C  0.97091535  0.22529653  0.04935935    -0.10300
C303        C  0.96187050  0.25996654  0.05716467    -0.11100
C304        C  0.95372989  0.26937722  0.09155104     0.20400
C305        C  0.95496303  0.24403287  0.11815930    -0.13200
C306        C  0.96401305  0.20934444  0.11035084    -0.11400
C307        C  0.94369396  0.30490863  0.09933946     0.01400
C308        C  0.93513597  0.33483050  0.10493925    -0.31400
C309        C  0.98034765  0.16403928  0.06765618     0.02700
C310        C  0.98709075  0.13411149  0.06004117    -0.33100
H311        H  0.97693474  0.21826892  0.02263742     0.13800
H312        H  0.96100977  0.27936093  0.03639073     0.13600
H313        H  0.94872870  0.25103292  0.14483626     0.13500
H314        H  0.96466529  0.18989795  0.13107794     0.12500
C315        C  0.54536175  0.00786427  0.03235191     0.18800
C316        C  0.53206574  0.04020036  0.04363992    -0.10300
C317        C  0.51152188  0.06074700  0.02103929    -0.11100
C318        C  0.50421041  0.04903319  0.98709164     0.20400
C319        C  0.51804775  0.01702295  0.97567398    -0.13200
C320        C  0.53854931  0.99652955  0.99821663    -0.11400
C321        C  0.48060994  0.06848115  0.96479346     0.01400
C322        C  0.45871210  0.08295440  0.94706924    -0.31400
C323        C  0.56448622  0.98525029  0.05595844     0.02700
C324        C  0.57907706  0.96353397  0.07389293    -0.33100
H325        H  0.53699839  0.04917310  0.07002119     0.13800
H326        H  0.50074806  0.08534251  0.03025274     0.13600
H327        H  0.51237305  0.00755560  0.94961225     0.13500
H328        H  0.54852495  0.97150312  0.98925030     0.12500
C329        C  0.57975900  0.98134268  0.31860681     0.18800
C330        C  0.55603068  0.98786322  0.29134318    -0.10300
C331        C  0.56408970  0.97775845  0.25717551    -0.11100
C332        C  0.59594335  0.96108518  0.25002079     0.20400
C333        C  0.61992860  0.95504670  0.27718500    -0.13200
C334        C  0.61186596  0.96516447  0.31137988    -0.11400
C335        C  0.60308164  0.94858331  0.21522294     0.01400
C336        C  0.60736130  0.93646658  0.18643792    -0.31400
C337        C  0.57063420  0.99017499  0.35406507     0.02700
C338        C  0.56238720  0.99674341  0.38377512    -0.33100
H339        H  0.53110299  0.00027714  0.29657931     0.13800
H340        H  0.54525656  0.98242107  0.23645358     0.13600
H341        H  0.64456917  0.94202811  0.27203874     0.13500
H342        H  0.63040773  0.95991167  0.33222465     0.12500
C343        C  0.57425691  0.77179051  0.09208252     0.18800
C344        C  0.59167725  0.74422163  0.10922855    -0.10300
C345        C  0.58244315  0.70939349  0.10248615    -0.11100
C346        C  0.55571122  0.70190574  0.07856425     0.20400
C347        C  0.53810611  0.72949063  0.06160228    -0.13200
C348        C  0.54734460  0.76432914  0.06834658    -0.11400
C349        C  0.54710721  0.66597927  0.07062315     0.01400
C350        C  0.54068556  0.63601670  0.06279389    -0.31400
C351        C  0.58438269  0.80761394  0.09845386     0.02700
C352        C  0.59331780  0.83750759  0.10358288    -0.33100
H353        H  0.61255000  0.74963887  0.12759654     0.13800
H354        H  0.59633422  0.68832435  0.11567954     0.13600
H355        H  0.51747605  0.72406017  0.04296435     0.13500
H356        H  0.53370358  0.78539801  0.05488759     0.12500
C357        C  0.75445929  0.94061459  0.08517264     0.18800
C358        C  0.76457631  0.97485380  0.07655369    -0.10300
C359        C  0.79942755  0.98201686  0.06831844    -0.11100
C360        C  0.82439260  0.95499271  0.06861992     0.20400
C361        C  0.81427965  0.92075620  0.07729667    -0.13200
C362        C  0.77942664  0.91359355  0.08553272    -0.11400
C363        C  0.86028371  0.96249640  0.06004819     0.01400
C364        C  0.89011875  0.96973427  0.05292996    -0.31400
C365        C  0.71849324  0.93302792  0.09325409     0.02700
C366        C  0.68860719  0.92535601  0.09957412    -0.33100
H367        H  0.74554085  0.99596398  0.07612294     0.13800
H368        H  0.80689417  0.00859204  0.06167336     0.13600
H369        H  0.83329422  0.89962600  0.07764620     0.13500
H370        H  0.77193587  0.88700318  0.09209624     0.12500
C371        C  0.45024487  0.28038597  0.44406442     0.18800
C372        C  0.48579483  0.27337715  0.44950021    -0.10300
C373        C  0.49693218  0.23932249  0.45776898    -0.11100
C374        C  0.47255863  0.21215568  0.46063548     0.20400
C375        C  0.43701571  0.21916605  0.45511130    -0.13200
C376        C  0.42588526  0.25320231  0.44684696    -0.11400
C377        C  0.48390899  0.17717827  0.46952802     0.01400
C378        C  0.49285365  0.14778078  0.47728037    -0.31400
C379        C  0.43861161  0.31545872  0.43604805     0.02700
C380        C  0.42763697  0.34450212  0.42980152    -0.33100
H381        H  0.50483707  0.29421636  0.44746625     0.13800
H382        H  0.52447005  0.23420139  0.46202570     0.13600
H383        H  0.41793681  0.19837233  0.45729898     0.13500
H384        H  0.39832238  0.25834664  0.44275016     0.12500
C385        C  0.19624367  0.46349654  0.45829633     0.18800
C386        C  0.20909248  0.42961809  0.46481622    -0.10300
C387        C  0.24349544  0.42103800  0.45608727    -0.11100
C388        C  0.26513498  0.44631014  0.44080961     0.20400
C389        C  0.25223531  0.48013296  0.43415253    -0.13200
C390        C  0.21784653  0.48871033  0.44287718    -0.11400
C391        C  0.30073930  0.43778655  0.43257648     0.01400
C392        C  0.33082862  0.43107153  0.42634402    -0.31400
C393        C  0.16104944  0.47253875  0.46771021     0.02700
C394        C  0.13172207  0.48064587  0.47569590    -0.33100
H395        H  0.19259874  0.40994542  0.47676075     0.13800
H396        H  0.25326512  0.39482562  0.46140612     0.13600
H397        H  0.26879461  0.49987713  0.42241626     0.13500
H398        H  0.20816163  0.51499289  0.43775971     0.12500
C399        C  0.46889276  0.45132494  0.20793785     0.18800
C400        C  0.48436993  0.46912493  0.23592567    -0.10300
C401        C  0.47506635  0.46089110  0.27028275    -0.11100
C402        C  0.45027009  0.43479133  0.27681067     0.20400
C403        C  0.43523186  0.41654485  0.24885530    -0.13200
C404        C  0.44454180  0.42478323  0.21447544    -0.11400
C405        C  0.43888405  0.42813645  0.31199471     0.01400
C406        C  0.42779635  0.42411709  0.34116145    -0.31400
C407        C  0.47721308  0.46112269  0.17258471     0.02700
C408        C  0.48403306  0.47023688  0.14319398    -0.33100
H409        H  0.50319824  0.48971534  0.23116507     0.13800
H410        H  0.48673200  0.47526914  0.29169171     0.13600
H411        H  0.41590711  0.39642178  0.25360642     0.13500
H412        H  0.43238655  0.41087596  0.19302705     0.12500
C413        C  0.99462537  0.50320022  0.03945786     0.18800
C414        C  0.02431600  0.51898829  0.05395180    -0.10300
C415        C  0.04658182  0.53888554  0.03282563    -0.11100
C416        C  0.03925081  0.54301149  0.99712556     0.20400
C417        C  0.00937559  0.52751519  0.98276180    -0.13200
C418        C  0.98715097  0.50765907  0.00384845    -0.11400
C419        C  0.06258199  0.56231797  0.97482175     0.01400
C420        C  0.08079788  0.57732871  0.95397065    -0.31400
C421        C  0.97291190  0.48077056  0.06047457     0.02700
C422        C  0.95588007  0.45969618  0.07659372    -0.33100
H423        H  0.03050323  0.51549603  0.08140177     0.13800
H424        H  0.06965352  0.55066390  0.04419970     0.13600
H425        H  0.00349496  0.53043914  0.95517777     0.13500
H426        H  0.96443802  0.49536366  0.99228948     0.12500
C427        C  0.32408926  0.56839004  0.97731713     0.18800
C428        C  0.30557374  0.54701352  0.95408221    -0.10300
C429        C  0.27202032  0.55664694  0.94298873    -0.11100
C430        C  0.25665721  0.58774643  0.95502224     0.20400
C431        C  0.27504417  0.60909491  0.97844536    -0.13200
C432        C  0.30868604  0.59943706  0.98956779    -0.11400
C433        C  0.22232966  0.59768870  0.94268073     0.01400
C434        C  0.19388539  0.60410154  0.93041290    -0.31400
C435        C  0.35907408  0.55862257  0.98783343     0.02700
C436        C  0.38853733  0.54967908  0.99513429    -0.33100
H437        H  0.31717258  0.52300436  0.94435234     0.13800
H438        H  0.25813352  0.53994239  0.92484319     0.13600
H439        H  0.26349822  0.63323322  0.98790918     0.13500
H440        H  0.32273544  0.61624251  0.00748369     0.12500
C441        C  0.09383231  0.57851643  0.76597472     0.18800
C442        C  0.11507308  0.58583821  0.73713426    -0.10300
C443        C  0.10435672  0.57614855  0.70351282    -0.11100
C444        C  0.07235983  0.55909037  0.69859021     0.20400
C445        C  0.05129733  0.55149804  0.72747622    -0.13200
C446        C  0.06200408  0.56117549  0.76106219    -0.11400
C447        C  0.06073289  0.55010579  0.66390704     0.01400
C448        C  0.05053319  0.54328133  0.63484812    -0.31400
C449        C  0.10423430  0.58915797  0.80056425     0.02700
C450        C  0.11127142  0.59765334  0.83010570    -0.33100
H451        H  0.13973266  0.59923179  0.74060408     0.13800
H452        H  0.12084553  0.58219475  0.68137227     0.13600
H453        H  0.02649600  0.53836600  0.72400450     0.13500
H454        H  0.04536259  0.55537622  0.78315644     0.12500
C455        C  0.06750372  0.81876263  0.96577379     0.18800
C456        C  0.04771468  0.80055345  0.94093292    -0.10300
C457        C  0.05791465  0.76691319  0.93044353    -0.11100
C458        C  0.08797010  0.75126875  0.94472004     0.20400
C459        C  0.10775181  0.76945610  0.96958881    -0.13200
C460        C  0.09754739  0.80311311  0.98008305    -0.11400
C461        C  0.09851340  0.71671608  0.93360614     0.01400
C462        C  0.10648189  0.68788617  0.92331705    -0.31400
C463        C  0.05705351  0.85347721  0.97648295     0.02700
C464        C  0.04854487  0.88261043  0.98544810    -0.33100
H465        H  0.02445781  0.81236285  0.92966157     0.13800
H466        H  0.04241853  0.75313717  0.91117505     0.13600
H467        H  0.13104703  0.75766559  0.98079451     0.13500
H468        H  0.11307811  0.81692969  0.99929255     0.12500
C469        C  0.03179565  0.99312630  0.49336313     0.18800
C470        C  0.02395302  0.98328490  0.52774686    -0.10300
C471        C  0.00358234  0.00523453  0.54867059    -0.11100
C472        C  0.99095645  0.03717998  0.53536001     0.20400
C473        C  0.99831559  0.04680729  0.50078809    -0.13200
C474        C  0.01872080  0.02482099  0.47982978    -0.11400
C475        C  0.97153567  0.06036828  0.55774828     0.01400
C476        C  0.95639008  0.07846878  0.57860788    -0.31400
C477        C  0.05509028  0.97179290  0.47291771     0.02700
C478        C  0.07681584  0.95498258  0.45748113    -0.33100
H479        H  0.03411971  0.95897843  0.53857630     0.13800
H480        H  0.99814222  0.99756709  0.57539290     0.13600
H481        H  0.98877231  0.07148552  0.49025049     0.13500
H482        H  0.02482809  0.03281411  0.45335581     0.12500
C483        C  0.94811977  0.25678660  0.58441862     0.18800
C484        C  0.98284444  0.26609021  0.57777455    -0.10300
C485        C  0.99096006  0.30031991  0.56727787    -0.11100
C486        C  0.96439755  0.32546604  0.56337932     0.20400
C487        C  0.92965515  0.31611746  0.56987197    -0.13200
C488        C  0.92154020  0.28188763  0.58037025    -0.11400
C489        C  0.97277738  0.36089167  0.55308721     0.01400
C490        C  0.97958310  0.39067618  0.54475122    -0.31400
C491        C  0.93991915  0.22177321  0.59614227     0.02700
C492        C  0.93355909  0.19271379  0.60698816    -0.33100
H493        H  0.00363827  0.24695998  0.58090702     0.13800
H494        H  0.01791880  0.30721172  0.56237693     0.13600
H495        H  0.90888907  0.33531508  0.56698785     0.13500
H496        H  0.89461149  0.27506200  0.58552123     0.12500
C497        C  0.71617024  0.07915918  0.55536019     0.18800
C498        C  0.74512275  0.06033397  0.54311875    -0.10300
C499        C  0.77878662  0.06933654  0.55411831    -0.11100
C500        C  0.78363459  0.09721789  0.57737907     0.20400
C501        C  0.75471397  0.11629217  0.58928918    -0.13200
C502        C  0.72106441  0.10729476  0.57829345    -0.11400
C503        C  0.81803789  0.10522762  0.59026793     0.01400
C504        C  0.84650184  0.11069430  0.60260628    -0.31400
C505        C  0.68140310  0.06894885  0.54535529     0.02700
C506        C  0.65209487  0.06005647  0.53806937    -0.33100
H507        H  0.74163820  0.03846206  0.52546536     0.13800
H508        H  0.80094671  0.05428986  0.54488760     0.13600
H509        H  0.75813891  0.13777574  0.60742180     0.13500
H510        H  0.69886244  0.12196074  0.58800898     0.12500
C511        C  0.94197157  0.08196865  0.76689537     0.18800
C512        C  0.93224737  0.10201623  0.79591171    -0.10300
C513        C  0.93988486  0.09001597  0.82971589    -0.11100
C514        C  0.95724559  0.05790988  0.83464657     0.20400
C515        C  0.96672454  0.03775358  0.80562800    -0.13200
C516        C  0.95909009  0.04974738  0.77184343    -0.11400
C517        C  0.96628022  0.04620224  0.86937279     0.01400
C518        C  0.97489609  0.03740342  0.89848310    -0.31400
C519        C  0.93474014  0.09443792  0.73202980     0.02700
C520        C  0.92931805  0.10363776  0.70229593    -0.33100
H521        H  0.91899866  0.12695810  0.79239965     0.13800
H522        H  0.93252662  0.10587504  0.85196192     0.13600
H523        H  0.98024624  0.01295377  0.80910897     0.13500
H524        H  0.96672481  0.03402492  0.74959036     0.12500
C525        C  0.49794060  0.49901663  0.48685845     0.18800
C526        C  0.48428131  0.52992771  0.50115000    -0.10300
C527        C  0.50529010  0.55137495  0.52193135    -0.11100
C528        C  0.54011819  0.54207220  0.52854881     0.20400
C529        C  0.55395536  0.51135231  0.51394198    -0.13200
C530        C  0.53290204  0.48985968  0.49311435    -0.11400
C531        C  0.56088238  0.56312321  0.55182287     0.01400
C532        C  0.57665730  0.58000430  0.57324955    -0.31400
C533        C  0.47555057  0.47642467  0.46676248     0.02700
C534        C  0.45461630  0.45873932  0.45122882    -0.33100
H535        H  0.45725909  0.53720965  0.49659536     0.13800
H536        H  0.49423698  0.57492025  0.53326160     0.13600
H537        H  0.58079323  0.50377527  0.51906963     0.13500
H538        H  0.54371410  0.46596218  0.48229881     0.12500
C539        C  0.57301538  0.82767631  0.56004206     0.18800
C540        C  0.60649200  0.81865315  0.57210087    -0.10300
C541        C  0.61416792  0.78394977  0.58163451    -0.11100
C542        C  0.58842988  0.75803366  0.57912981     0.20400
C543        C  0.55505337  0.76698504  0.56673817    -0.13200
C544        C  0.54737680  0.80168881  0.55720456    -0.11400
C545        C  0.59587370  0.72260273  0.59041199     0.01400
C546        C  0.60150908  0.69333026  0.60130325    -0.31400
C547        C  0.56482630  0.86362393  0.55113889     0.02700
C548        C  0.55778488  0.89372056  0.54389868    -0.33100
H549        H  0.62654102  0.83848037  0.57442410     0.13800
H550        H  0.64003116  0.77740571  0.59128059     0.13600
H551        H  0.53489136  0.74723239  0.56478633     0.13500
H552        H  0.52139776  0.80830698  0.54792919     0.12500
C553        C  0.81887501  0.57615758  0.55868876     0.18800
C554        C  0.81362259  0.59983617  0.58610636    -0.10300
C555        C  0.77972609  0.60910747  0.59609892    -0.11100
C556        C  0.75087476  0.59478500  0.57871405     0.20400
C557        C  0.75611091  0.57138713  0.55103703    -0.13200
C558        C  0.79003157  0.56210967  0.54103638    -0.11400
C559        C  0.71602127  0.60305474  0.59021931     0.01400
C560        C  0.68716508  0.60896010  0.60135374    -0.31400
C561        C  0.85380062  0.56575772  0.54923683     0.02700
C562        C  0.88311199  0.55680041  0.54185513    -0.33100
H563        H  0.83570173  0.61083709  0.59997447     0.13800
H564        H  0.77601239  0.62710950  0.61762302     0.13600
H565        H  0.73401551  0.56003318  0.53748847     0.13500
H566        H  0.79375790  0.54374563  0.51982205     0.12500
C567        C  0.56885402  0.56857723  0.83160495     0.18800
C568        C  0.57339387  0.54291902  0.80588453    -0.10300
C569        C  0.58191126  0.55270457  0.77170228    -0.11100
C570        C  0.58595044  0.58820818  0.76303870     0.20400
C571        C  0.58153073  0.61388883  0.78877802    -0.13200
C572        C  0.57300554  0.60409528  0.82299080    -0.11400
C573        C  0.59428424  0.59816420  0.72768972     0.01400
C574        C  0.60086836  0.60567284  0.69777357    -0.31400
C575        C  0.55954889  0.55840787  0.86664806     0.02700
C576        C  0.55136288  0.54949782  0.89576732    -0.33100
H577        H  0.57021713  0.51538753  0.81222157     0.13800
H578        H  0.58522486  0.53262262  0.75202022     0.13600
H579        H  0.58455079  0.64142310  0.78237784     0.13500
H580        H  0.56952553  0.62417126  0.84264821     0.12500
loop_ 
_geom_bond_atom_site_label_1 
_geom_bond_atom_site_label_2 
_geom_bond_distance 
_geom_bond_site_symmetry_2 
_ccdc_geom_bond_type 
C1            C2   1.533       .  S
C1            C7   1.533       .  S
C1            C5   1.533       .  S
C1          C574   1.469       .  S
C2            H9   1.087       .  S
C2            C3   1.365       .  D
C3            C4   1.540       .  S
C3          C546   1.444       .  S
C4            C8   1.538       .  S
C4            C6   1.538       .  S
C4           H10   1.112       .  S
C5           H11   1.087       .  S
C5            C6   1.363       .  D
C6          C532   1.442       .  S
C7           H12   1.087       .  S
C7            C8   1.364       .  D
C8          C560   1.443       .  S
C13          C14   1.533       .  S
C13          C19   1.534       .  S
C13          C17   1.533       .  S
C13         C520   1.468       .  S
C14          H21   1.087       .  S
C14          C15   1.364       .  D
C15          C16   1.538       .  S
C15         C504   1.441       .  S
C16          C20   1.540       .  S
C16          C18   1.537       .  S
C16          H22   1.112       .  S
C17          H23   1.087       .  S
C17          C18   1.363       .  D
C18         C476   1.441       .  S
C19          H24   1.087       .  S
C19          C20   1.365       .  D
C20         C492   1.444       .  S
C25          C26   1.533       .  S
C25          C31   1.534       .  S
C25          C29   1.533       .  S
C25         C450   1.469       .  S
C26          H33   1.087       .  S
C26          C27   1.365       .  D
C27          C28   1.540       .  S
C27         C434   1.445       .  S
C28          C32   1.539       .  S
C28          C30   1.538       .  S
C28          H34   1.111       .  S
C29          H35   1.087       .  S
C29          C30   1.363       .  D
C30         C420   1.442       .  S
C31          H36   1.087       .  S
C31          C32   1.365       .  D
C32         C462   1.443       .  S
C37          C38   1.532       .  S
C37          C43   1.532       .  S
C37          C41   1.532       .  S
C37         C392   1.465       .  S
C38          H45   1.087       .  S
C38          C39   1.363       .  D
C39          C40   1.538       .  S
C39         C380   1.440       .  S
C40          C44   1.538       .  S
C40          C42   1.538       .  S
C40          H46   1.112       .  S
C41          H47   1.087       .  S
C41          C42   1.363       .  D
C42         C534   1.442       .  S
C43          H48   1.087       .  S
C43          C44   1.364       .  D
C44         C406   1.440       .  S
C49          C50   1.533       .  S
C49          C55   1.534       .  S
C49          C53   1.533       .  S
C49         C352   1.471       .  S
C50          H57   1.087       .  S
C50          C51   1.365       .  D
C51          C52   1.540       .  S
C51         C336   1.444       .  S
C52          C56   1.540       .  S
C52          C54   1.539       .  S
C52          H58   1.111       .  S
C53          H59   1.087       .  S
C53          C54   1.364       .  D
C54         C324   1.443       .  S
C55          H60   1.087       .  S
C55          C56   1.364       .  D
C56         C366   1.444       .  S
C61          C62   1.532       .  S
C61          C67   1.533       .  S
C61          C65   1.531       .  S
C61         C308   1.467       .  S
C62          H69   1.087       .  S
C62          C63   1.364       .  D
C63          C64   1.540       .  S
C63         C296   1.443       .  S
C64          C68   1.539       .  S
C64          C66   1.539       .  S
C64          H70   1.111       .  S
C65          H71   1.087       .  S
C65          C66   1.363       .  D
C66         C422   1.442       .  S
C67          H72   1.087       .  S
C67          C68   1.365       .  D
C68         C280   1.442       .  S
C73          C74   1.535       .  S
C73          C79   1.534       .  S
C73          C77   1.533       .  S
C73         C268   1.472       .  S
C74          H81   1.087       .  S
C74          C75   1.366       .  D
C75          C76   1.542       .  S
C75         C254   1.448       .  S
C76          C80   1.540       .  S
C76          C78   1.538       .  S
C76          H82   1.111       .  S
C77          H83   1.087       .  S
C77          C78   1.363       .  D
C78         C322   1.443       .  S
C79          H84   1.087       .  S
C79          C80   1.365       .  D
C80         C238   1.445       .  S
C85          C86   1.532       .  S
C85          C91   1.533       .  S
C85          C89   1.532       .  S
C85         C196   1.467       .  S
C86          H93   1.087       .  S
C86          C87   1.363       .  D
C87          C88   1.539       .  S
C87         C224   1.442       .  S
C88          C92   1.540       .  S
C88          C90   1.538       .  S
C88          H94   1.111       .  S
C89          H95   1.087       .  S
C89          C90   1.363       .  D
C90         C478   1.441       .  S
C91          H96   1.087       .  S
C91          C92   1.365       .  D
C92         C210   1.444       .  S
Zn97        O101   1.967   1_565  S
Zn97        O102   2.024       .  S
Zn97        O106   2.032   1_565  S
Zn97        O113   2.020       .  S
Zn98        O101   1.966   1_655  S
Zn98        O103   2.021       .  S
Zn98        O105   2.018   1_655  S
Zn98        O109   2.022       .  S
Zn99        O101   1.963   1_556  S
Zn99        O104   2.020       .  S
Zn99        O107   2.013   1_556  S
Zn99        O110   2.012       .  S
Zn100       O101   1.971   1_666  S
Zn100       O108   2.026       .  S
Zn100       O111   2.031   1_556  S
Zn100       O112   2.026   1_655  S
O102        C114   1.273       .  A
O103        C115   1.272       .  A
O104        C116   1.272   1_556  A
O105        C114   1.272   1_545  A
O106        C116   1.273       .  A
O107        C115   1.271   1_455  A
O108        C117   1.273   1_565  A
O109        C118   1.272   1_545  A
O110        C117   1.271   1_455  A
O111        C118   1.273       .  A
O112        C119   1.273       .  A
O113        C119   1.273   1_554  A
C114        C226   1.436       .  S
C115        C310   1.435       .  S
C116        C266   1.440   1_554  S
C117        C518   1.436       .  S
C118        C364   1.440       .  S
C119        C464   1.438       .  S
Zn120       O124   1.969       .  S
Zn120       O125   2.024       .  S
Zn120       O129   2.017       .  S
Zn120       O136   2.021       .  S
Zn121       O124   1.966   1_565  S
Zn121       O126   2.021       .  S
Zn121       O128   2.024       .  S
Zn121       O132   2.019       .  S
Zn122       O124   1.968       .  S
Zn122       O127   2.020       .  S
Zn122       O130   2.029   1_545  S
Zn122       O133   2.035       .  S
Zn123       O124   1.964       .  S
Zn123       O131   2.022       .  S
Zn123       O134   2.015       .  S
Zn123       O135   2.015       .  S
O125        C137   1.272       .  A
O126        C138   1.272       .  A
O127        C139   1.273       .  A
O128        C137   1.272   1_565  A
O129        C139   1.272       .  A
O130        C138   1.274       .  A
O131        C140   1.272       .  A
O132        C141   1.272       .  A
O133        C140   1.274       .  A
O134        C141   1.272   1_545  A
O135        C142   1.271       .  A
O136        C142   1.272       .  A
C137        C338   1.439   1_545  S
C138        C548   1.439       .  S
C139        C506   1.435       .  S
C140        C252   1.442       .  S
C141        C198   1.434       .  S
C142        C378   1.435       .  S
Zn143       O147   1.965       .  S
Zn143       O148   2.019       .  S
Zn143       O152   2.017   1_554  S
Zn143       O159   2.021       .  S
Zn144       O147   1.971       .  S
Zn144       O149   2.028       .  S
Zn144       O151   2.029       .  S
Zn144       O155   2.023       .  S
Zn145       O147   1.966   1_556  S
Zn145       O150   2.022       .  S
Zn145       O153   2.025       .  S
Zn145       O156   2.028       .  S
Zn146       O147   1.967       .  S
Zn146       O154   2.023       .  S
Zn146       O157   2.015       .  S
Zn146       O158   2.025       .  S
O148        C160   1.272       .  A
O149        C161   1.273       .  A
O150        C162   1.273       .  A
O151        C160   1.273       .  A
O152        C162   1.272       .  A
O153        C161   1.273   1_556  A
O154        C163   1.272   1_554  A
O155        C164   1.273       .  A
O156        C163   1.273       .  A
O157        C164   1.272       .  A
O158        C165   1.273       .  A
O159        C165   1.272       .  A
C160        C350   1.439       .  S
C161        C436   1.440   1_554  S
C162        C576   1.436       .  S
C163        C240   1.440       .  S
C164        C408   1.435       .  S
C165        C294   1.438       .  S
Zn166       O170   1.965   1_655  S
Zn166       O171   2.021   1_655  S
Zn166       O175   2.023       .  S
Zn166       O182   2.024   1_655  S
Zn167       O170   1.967       .  S
Zn167       O172   2.023       .  S
Zn167       O174   2.020       .  S
Zn167       O178   2.016       .  S
Zn168       O170   1.965   1_655  S
Zn168       O173   2.020       .  S
Zn168       O176   2.024       .  S
Zn168       O179   2.020       .  S
Zn169       O170   1.965       .  S
Zn169       O177   2.019       .  S
Zn169       O180   2.014       .  S
Zn169       O181   2.021       .  S
O171        C183   1.272       .  A
O172        C184   1.272   1_455  A
O173        C185   1.272       .  A
O174        C183   1.272       .  A
O175        C185   1.273       .  A
O176        C184   1.273       .  A
O177        C186   1.272   1_455  A
O178        C187   1.272       .  A
O179        C186   1.272       .  A
O180        C187   1.271       .  A
O181        C188   1.272       .  A
O182        C188   1.272       .  A
C183        C448   1.437       .  S
C184        C490   1.438       .  S
C185        C562   1.437       .  S
C186        C282   1.436       .  S
C187        C394   1.433       .  S
C188        C212   1.438       .  S
C189        C197   1.439       .  S
C189        C190   1.401       .  A
C189        C194   1.401       .  A
C190        C191   1.399       .  A
C190        H199   1.083       .  S
C191        C192   1.401       .  A
C191        H200   1.084       .  S
C192        C195   1.439       .  S
C192        C193   1.401       .  A
C193        C194   1.399       .  A
C193        H201   1.083       .  S
C194        H202   1.083       .  S
C195        C196   1.205       .  T
C197        C198   1.206       .  T
C203        C211   1.443       .  S
C203        C204   1.402       .  A
C203        C208   1.402       .  A
C204        C205   1.400       .  A
C204        H213   1.084       .  S
C205        C206   1.402       .  A
C205        H214   1.083       .  S
C206        C209   1.443       .  S
C206        C207   1.402       .  A
C207        C208   1.400       .  A
C207        H215   1.084       .  S
C208        H216   1.083       .  S
C209        C210   1.208       .  T
C211        C212   1.208       .  T
C217        C225   1.441       .  S
C217        C218   1.402       .  A
C217        C222   1.401       .  A
C218        C219   1.400       .  A
C218        H227   1.084       .  S
C219        C220   1.401       .  A
C219        H228   1.083       .  S
C220        C223   1.441       .  S
C220        C221   1.402       .  A
C221        C222   1.399       .  A
C221        H229   1.084       .  S
C222        H230   1.083       .  S
C223        C224   1.206       .  T
C225        C226   1.207       .  T
C231        C239   1.444       .  S
C231        C232   1.402       .  A
C231        C236   1.402       .  A
C232        C233   1.400       .  A
C232        H241   1.083       .  S
C233        C234   1.402       .  A
C233        H242   1.083       .  S
C234        C237   1.444       .  S
C234        C235   1.402       .  A
C235        C236   1.401       .  A
C235        H243   1.083       .  S
C236        H244   1.083       .  S
C237        C238   1.208       .  T
C239        C240   1.209       .  T
C245        C253   1.447       .  S
C245        C246   1.402       .  A
C245        C250   1.403       .  A
C246        C247   1.401       .  A
C246        H255   1.083       .  S
C247        C248   1.402       .  A
C247        H256   1.083       .  S
C248        C251   1.446       .  S
C248        C249   1.402       .  A
C249        C250   1.402       .  A
C249        H257   1.083       .  S
C250        H258   1.083       .  S
C251        C252   1.210       .  T
C253        C254   1.210       .  T
C259        C267   1.444       .  S
C259        C260   1.403       .  A
C259        C264   1.402       .  A
C260        C261   1.401       .  A
C260        H269   1.083       .  S
C261        C262   1.402       .  A
C261        H270   1.083   1_556  S
C262        C265   1.445       .  S
C262        C263   1.402       .  A
C263        C264   1.400       .  A
C263        H271   1.083       .  S
C264        H272   1.083       .  S
C265        C266   1.209       .  T
C267        C268   1.209       .  T
C273        C281   1.441       .  S
C273        C274   1.401       .  A
C273        C278   1.401       .  A
C274        C275   1.399       .  A
C274        H283   1.084       .  S
C275        C276   1.401       .  A
C275        H284   1.083       .  S
C276        C279   1.441       .  S
C276        C277   1.402       .  A
C277        C278   1.400       .  A
C277        H285   1.084       .  S
C278        H286   1.083       .  S
C279        C280   1.206       .  T
C281        C282   1.207       .  T
C287        C295   1.442       .  S
C287        C288   1.402       .  A
C287        C292   1.402       .  A
C288        C289   1.400       .  A
C288        H297   1.083       .  S
C289        C290   1.402       .  A
C289        H298   1.083       .  S
C290        C293   1.442       .  S
C290        C291   1.402       .  A
C291        C292   1.400       .  A
C291        H299   1.083       .  S
C292        H300   1.083       .  S
C293        C294   1.208       .  T
C295        C296   1.207       .  T
C301        C309   1.439       .  S
C301        C302   1.401       .  A
C301        C306   1.401       .  A
C302        C303   1.398       .  A
C302        H311   1.083       .  S
C303        C304   1.401       .  A
C303        H312   1.084       .  S
C304        C307   1.439       .  S
C304        C305   1.401       .  A
C305        C306   1.399       .  A
C305        H313   1.083       .  S
C306        H314   1.083       .  S
C307        C308   1.206       .  T
C309        C310   1.206       .  T
C315        C323   1.442   1_545  S
C315        C316   1.402       .  A
C315        C320   1.401   1_544  A
C316        C317   1.401       .  A
C316        H325   1.083       .  S
C317        C318   1.403   1_554  A
C317        H326   1.083       .  S
C318        C321   1.441       .  S
C318        C319   1.400       .  A
C319        C320   1.398   1_545  A
C319        H327   1.083       .  S
C320        H328   1.084       .  S
C321        C322   1.207       .  T
C323        C324   1.207       .  T
C329        C337   1.443       .  S
C329        C330   1.402       .  A
C329        C334   1.402       .  A
C330        C331   1.400       .  A
C330        H339   1.083   1_565  S
C331        C332   1.402       .  A
C331        H340   1.083       .  S
C332        C335   1.443       .  S
C332        C333   1.402       .  A
C333        C334   1.401       .  A
C333        H341   1.083       .  S
C334        H342   1.083       .  S
C335        C336   1.208       .  T
C337        C338   1.208       .  T
C343        C351   1.443       .  S
C343        C344   1.402       .  A
C343        C348   1.402       .  A
C344        C345   1.400       .  A
C344        H353   1.083       .  S
C345        C346   1.402       .  A
C345        H354   1.083       .  S
C346        C349   1.443       .  S
C346        C347   1.402       .  A
C347        C348   1.400       .  A
C347        H355   1.083       .  S
C348        H356   1.083       .  S
C349        C350   1.208       .  T
C351        C352   1.208       .  T
C357        C365   1.443       .  S
C357        C358   1.401       .  A
C357        C362   1.402       .  A
C358        C359   1.400       .  A
C358        H367   1.083       .  S
C359        C360   1.402       .  A
C359        H368   1.083   1_565  S
C360        C363   1.444       .  S
C360        C361   1.402       .  A
C361        C362   1.401       .  A
C361        H369   1.083       .  S
C362        H370   1.083       .  S
C363        C364   1.209       .  T
C365        C366   1.208       .  T
C371        C379   1.439       .  S
C371        C372   1.401       .  A
C371        C376   1.401       .  A
C372        C373   1.399       .  A
C372        H381   1.083       .  S
C373        C374   1.401       .  A
C373        H382   1.083       .  S
C374        C377   1.440       .  S
C374        C375   1.401       .  A
C375        C376   1.398       .  A
C375        H383   1.084       .  S
C376        H384   1.084       .  S
C377        C378   1.206       .  T
C379        C380   1.205       .  T
C385        C393   1.437       .  S
C385        C386   1.401       .  A
C385        C390   1.401       .  A
C386        C387   1.398       .  A
C386        H395   1.083       .  S
C387        C388   1.401       .  A
C387        H396   1.084       .  S
C388        C391   1.437       .  S
C388        C389   1.401       .  A
C389        C390   1.398       .  A
C389        H397   1.083       .  S
C390        H398   1.084       .  S
C391        C392   1.204       .  T
C393        C394   1.205       .  T
C399        C407   1.439       .  S
C399        C400   1.401       .  A
C399        C404   1.401       .  A
C400        C401   1.398       .  A
C400        H409   1.083       .  S
C401        C402   1.401       .  A
C401        H410   1.083       .  S
C402        C405   1.439       .  S
C402        C403   1.402       .  A
C403        C404   1.399       .  A
C403        H411   1.084       .  S
C404        H412   1.083       .  S
C405        C406   1.205       .  T
C407        C408   1.206       .  T
C413        C421   1.441       .  S
C413        C414   1.402   1_655  A
C413        C418   1.401       .  A
C414        C415   1.401       .  A
C414        H423   1.083       .  S
C415        C416   1.402   1_554  A
C415        H424   1.083       .  S
C416        C419   1.440       .  S
C416        C417   1.401       .  A
C417        C418   1.398   1_456  A
C417        H425   1.084       .  S
C418        H426   1.084   1_554  S
C419        C420   1.206       .  T
C421        C422   1.206       .  T
C427        C435   1.444       .  S
C427        C428   1.401       .  A
C427        C432   1.403       .  A
C428        C429   1.399       .  A
C428        H437   1.084       .  S
C429        C430   1.401       .  A
C429        H438   1.083       .  S
C430        C433   1.444       .  S
C430        C431   1.403       .  A
C431        C432   1.403       .  A
C431        H439   1.083       .  S
C432        H440   1.083   1_556  S
C433        C434   1.208       .  T
C435        C436   1.209       .  T
C441        C449   1.441       .  S
C441        C442   1.401       .  A
C441        C446   1.402       .  A
C442        C443   1.400       .  A
C442        H451   1.084       .  S
C443        C444   1.402       .  A
C443        H452   1.083       .  S
C444        C447   1.441       .  S
C444        C445   1.401       .  A
C445        C446   1.399       .  A
C445        H453   1.084       .  S
C446        H454   1.083       .  S
C447        C448   1.207       .  T
C449        C450   1.207       .  T
C455        C463   1.442       .  S
C455        C456   1.401       .  A
C455        C460   1.402       .  A
C456        C457   1.400       .  A
C456        H465   1.083       .  S
C457        C458   1.402       .  A
C457        H466   1.083       .  S
C458        C461   1.442       .  S
C458        C459   1.402       .  A
C459        C460   1.400       .  A
C459        H467   1.083       .  S
C460        H468   1.083       .  S
C461        C462   1.207       .  T
C463        C464   1.207       .  T
C469        C477   1.440       .  S
C469        C470   1.401       .  A
C469        C474   1.402   1_565  A
C470        C471   1.398   1_565  A
C470        H479   1.084       .  S
C471        C472   1.401   1_455  A
C471        H480   1.084   1_445  S
C472        C475   1.440       .  S
C472        C473   1.401       .  A
C473        C474   1.400   1_655  A
C473        H481   1.083       .  S
C474        H482   1.083       .  S
C475        C476   1.206       .  T
C477        C478   1.206       .  T
C483        C491   1.443       .  S
C483        C484   1.402       .  A
C483        C488   1.402       .  A
C484        C485   1.400       .  A
C484        H493   1.083   1_655  S
C485        C486   1.402       .  A
C485        H494   1.083   1_655  S
C486        C489   1.443       .  S
C486        C487   1.402       .  A
C487        C488   1.400       .  A
C487        H495   1.083       .  S
C488        H496   1.083       .  S
C489        C490   1.208       .  T
C491        C492   1.207       .  T
C497        C505   1.440       .  S
C497        C498   1.401       .  A
C497        C502   1.401       .  A
C498        C499   1.399       .  A
C498        H507   1.083       .  S
C499        C500   1.401       .  A
C499        H508   1.083       .  S
C500        C503   1.439       .  S
C500        C501   1.401       .  A
C501        C502   1.399       .  A
C501        H509   1.084       .  S
C502        H510   1.083       .  S
C503        C504   1.206       .  T
C505        C506   1.206       .  T
C511        C519   1.440       .  S
C511        C512   1.401       .  A
C511        C516   1.401       .  A
C512        C513   1.400       .  A
C512        H521   1.083       .  S
C513        C514   1.402       .  A
C513        H522   1.084       .  S
C514        C517   1.440       .  S
C514        C515   1.401       .  A
C515        C516   1.399       .  A
C515        H523   1.083       .  S
C516        H524   1.084       .  S
C517        C518   1.206       .  T
C519        C520   1.206       .  T
C525        C533   1.440       .  S
C525        C526   1.401       .  A
C525        C530   1.402       .  A
C526        C527   1.398       .  A
C526        H535   1.084       .  S
C527        C528   1.401       .  A
C527        H536   1.083       .  S
C528        C531   1.441       .  S
C528        C529   1.402       .  A
C529        C530   1.401       .  A
C529        H537   1.083       .  S
C530        H538   1.083       .  S
C531        C532   1.206       .  T
C533        C534   1.206       .  T
C539        C547   1.443       .  S
C539        C540   1.402       .  A
C539        C544   1.402       .  A
C540        C541   1.400       .  A
C540        H549   1.083       .  S
C541        C542   1.402       .  A
C541        H550   1.083       .  S
C542        C545   1.443       .  S
C542        C543   1.402       .  A
C543        C544   1.400       .  A
C543        H551   1.083       .  S
C544        H552   1.083       .  S
C545        C546   1.208       .  T
C547        C548   1.208       .  T
C553        C561   1.441       .  S
C553        C554   1.401       .  A
C553        C558   1.402       .  A
C554        C555   1.399       .  A
C554        H563   1.083       .  S
C555        C556   1.401       .  A
C555        H564   1.084       .  S
C556        C559   1.441       .  S
C556        C557   1.402       .  A
C557        C558   1.400       .  A
C557        H565   1.083       .  S
C558        H566   1.083       .  S
C559        C560   1.207       .  T
C561        C562   1.207       .  T
C567        C575   1.441       .  S
C567        C568   1.401       .  A
C567        C572   1.402       .  A
C568        C569   1.399       .  A
C568        H577   1.084       .  S
C569        C570   1.401       .  A
C569        H578   1.083       .  S
C570        C573   1.441       .  S
C570        C571   1.402       .  A
C571        C572   1.400       .  A
C571        H579   1.083       .  S
C572        H580   1.083       .  S
C573        C574   1.207       .  T
C575        C576   1.207       .  T
