geometry optimzed in LAMMPS
_audit_creation_date              2020-11-30 
_audit_creation_method            'lammps2cif' 
_symmetry_space_group_name_H-M    'P1' 
_symmetry_Int_Tables_number       1 
_symmetry_cell_setting            triclinic 
loop_ 
_symmetry_equiv_pos_as_xyz 
  x,y,z 
_cell_length_a                    60.19753084 
_cell_length_b                    60.11040427172508 
_cell_length_c                    42.28749362640824 
_cell_angle_alpha                 90.01599562562672 
_cell_angle_beta                  89.99328469650422 
_cell_angle_gamma                 125.81205092180022 
loop_ 
_atom_site_label 
_atom_site_type_symbol 
_atom_site_fract_x 
_atom_site_fract_y 
_atom_site_fract_z 
_atom_site_charge 
C1          C  0.53403491  0.30237100  0.25370883     0.87400
C2          C  0.52006451  0.30432385  0.28259314    -0.52900
C3          C  0.51754241  0.32541624  0.28189514     0.10300
C4          C  0.52951145  0.34326546  0.25162411     0.21200
C5          C  0.51754343  0.30137246  0.22511817    -0.53600
C6          C  0.51481199  0.32247964  0.22412277     0.10400
C7          C  0.56132745  0.33097361  0.25037635    -0.53100
C8          C  0.55930303  0.35229571  0.24944423     0.11000
H9          H  0.51314097  0.29024096  0.30243152     0.15500
H10         H  0.52769495  0.36060834  0.25088737     0.01200
H11         H  0.51056541  0.28698039  0.20582847     0.15800
H12         H  0.58107086  0.33424306  0.24880582     0.15600
C13         C  0.33394830  0.51421610  0.28219590     0.87400
C14         C  0.36086662  0.54229979  0.27523884    -0.52900
C15         C  0.36080836  0.55416938  0.24782750     0.10300
C16         C  0.33379966  0.53621681  0.22910860     0.21200
C17         C  0.31203469  0.51971449  0.28059712    -0.53600
C18         C  0.31146533  0.53098231  0.25265378     0.10400
C19         C  0.32890990  0.49660326  0.25305122    -0.53100
C20         C  0.32912464  0.50813106  0.22503440     0.11000
H21         H  0.37742301  0.55343933  0.29229031     0.15500
H22         H  0.33396951  0.54559022  0.20640957     0.01200
H23         H  0.29920821  0.51642461  0.30066711     0.15800
H24         H  0.32647352  0.47724179  0.25441429     0.15600
C25         C  0.75635339  0.45948867  0.26171213     0.87400
C26         C  0.77408616  0.47357614  0.29111350    -0.52900
C27         C  0.79964911  0.47929660  0.28957898     0.10300
C28         C  0.80516657  0.46964646  0.25849097     0.21200
C29         C  0.77401267  0.47784902  0.23347555    -0.53600
C30         C  0.79956568  0.48328508  0.23186258     0.10400
C31         C  0.75633110  0.43401879  0.25692981    -0.53100
C32         C  0.78146498  0.43905779  0.25514553     0.11000
H33         H  0.76700041  0.47896505  0.31134460     0.15500
H34         H  0.82572854  0.47384097  0.25717937     0.01200
H35         H  0.76627100  0.48407725  0.21497371     0.15800
H36         H  0.73797493  0.41344455  0.25333922     0.15600
C37         C  0.63977623  0.22273602  0.24883423     0.87400
C38         C  0.64313803  0.20981961  0.21983872    -0.52900
C39         C  0.66503065  0.20847855  0.22093237     0.10300
C40         C  0.68192239  0.22023548  0.25192513     0.21200
C41         C  0.63862102  0.20541538  0.27673194    -0.53600
C42         C  0.66060071  0.20408012  0.27842689     0.10400
C43         C  0.66733427  0.25028100  0.25389794    -0.53100
C44         C  0.68957268  0.24964842  0.25504374     0.11000
H45         H  0.62911919  0.20234667  0.19990683     0.15500
H46         H  0.69944755  0.21888098  0.25348178     0.01200
H47         H  0.62288109  0.19608240  0.29475157     0.15800
H48         H  0.66909406  0.26919310  0.25696557     0.15600
C49         C  0.22911388  0.63832660  0.25436538     0.87400
C50         C  0.21377278  0.63898042  0.28289862    -0.52900
C51         C  0.21094568  0.65999818  0.28309056     0.10300
C52         C  0.22325068  0.67857246  0.25332380     0.21200
C53         C  0.21238687  0.63754771  0.22582296    -0.53600
C54         C  0.20929543  0.65847260  0.22518836     0.10400
C55         C  0.25581470  0.66709083  0.25180938    -0.53100
C56         C  0.25333920  0.68824338  0.25152510     0.11000
H57         H  0.20437150  0.62304818  0.30072440     0.15500
H58         H  0.22078415  0.69545267  0.25270991     0.01200
H59         H  0.20400754  0.62258309  0.20699894     0.15800
H60         H  0.27553311  0.67045077  0.24903102     0.15600
C61         C  0.46161101  0.75845946  0.24434325     0.87400
C62         C  0.47916349  0.77871131  0.21817861    -0.52900
C63         C  0.48435115  0.80389649  0.22142470     0.10300
C64         C  0.47194840  0.80708046  0.25179062     0.21200
C65         C  0.47785705  0.77362101  0.27496147    -0.53600
C66         C  0.48335328  0.79910873  0.27879078     0.10400
C67         C  0.43619717  0.75831052  0.24710527    -0.53100
C68         C  0.44113300  0.78325172  0.25133332     0.11000
H69         H  0.48643261  0.77325034  0.19818211     0.15500
H70         H  0.47619158  0.82760567  0.25465040     0.01200
H71         H  0.48344595  0.76495985  0.29302200     0.15800
H72         H  0.41554879  0.73951793  0.24670666     0.15600
C73         C  0.68734876  0.49965805  0.78501567     0.87400
C74         C  0.66157263  0.46995187  0.78163341    -0.52900
C75         C  0.66114944  0.45688717  0.75511386     0.10300
C76         C  0.68601674  0.47521222  0.73325891     0.21200
C77         C  0.71135180  0.49712956  0.78180528    -0.53600
C78         C  0.71101258  0.48443052  0.75442335     0.10400
C79         C  0.68843216  0.51425581  0.75474655    -0.53100
C80         C  0.68762160  0.50150002  0.72758010     0.11000
H81         H  0.64575730  0.45940907  0.79960199     0.15500
H82         H  0.68504432  0.46493766  0.71095860     0.01200
H83         H  0.72574418  0.50280969  0.80084835     0.15800
H84         H  0.68945853  0.53290882  0.75481710     0.15600
C85         C  0.54754763  0.25412138  0.73920662     0.87400
C86         C  0.52973697  0.23388477  0.71302389    -0.52900
C87         C  0.52601110  0.20922990  0.71470423     0.10300
C88         C  0.54050850  0.20668660  0.74344586     0.21200
C89         C  0.53407986  0.23854932  0.77036816    -0.53600
C90         C  0.53000231  0.21365916  0.77258064     0.10400
C91         C  0.57412096  0.25583399  0.73850749    -0.53100
C92         C  0.57084170  0.23142703  0.74075045     0.11000
H93         H  0.52151355  0.23912807  0.69390215     0.15500
H94         H  0.53737511  0.18661986  0.74534560     0.01200
H95         H  0.52992713  0.24697694  0.79014913     0.15800
H96         H  0.59435645  0.27524495  0.73817807     0.15600
C97         C  0.25805334  0.55179833  0.75298173     0.87400
C98         C  0.23987701  0.53461196  0.78101383    -0.52900
C99         C  0.21438401  0.52899690  0.78084845     0.10300
C100        C  0.20859963  0.54019683  0.75140450     0.21200
C101        C  0.24055858  0.53434269  0.72380193    -0.53600
C102        C  0.21465023  0.52829529  0.72310636     0.10400
C103        C  0.25723411  0.57677916  0.75104727    -0.53100
C104        C  0.23177775  0.57108349  0.74989914     0.11000
H105        H  0.24708137  0.52824124  0.80010364     0.15500
H106        H  0.18781080  0.53551818  0.75101707     0.01200
H107        H  0.24776271  0.52821514  0.70460234     0.15800
H108        H  0.27570748  0.59765442  0.75030706     0.15600
C109        C  0.50716929  0.68662620  0.72533766     0.87400
C110        C  0.47891115  0.65890862  0.72870013    -0.52900
C111        C  0.46462415  0.65648127  0.75503516     0.10300
C112        C  0.48050609  0.68212290  0.77651718     0.21200
C113        C  0.50085014  0.70798763  0.72775743    -0.53600
C114        C  0.48695078  0.70592870  0.75469922     0.10400
C115        C  0.52245734  0.68988950  0.75594995    -0.53100
C116        C  0.50866623  0.68750439  0.78294793     0.11000
H117        H  0.46958587  0.64348754  0.71015349     0.15500
H118        H  0.46919358  0.67998320  0.79838299     0.01200
H119        H  0.50561012  0.72239613  0.70890848     0.15800
H120        H  0.54228328  0.69330789  0.75619172     0.15600
C121        C  0.79014324  0.37556702  0.75165840     0.87400
C122        C  0.80528482  0.37413193  0.77972972    -0.52900
C123        C  0.80634781  0.35199607  0.77975875     0.10300
C124        C  0.79263510  0.33320914  0.75042160     0.21200
C125        C  0.80571460  0.37493506  0.72266876    -0.53600
C126        C  0.80721106  0.35290735  0.72214434     0.10400
C127        C  0.76237095  0.34766495  0.74982882    -0.53100
C128        C  0.76322880  0.32555711  0.74913651     0.11000
H129        H  0.81413268  0.38942057  0.79841031     0.15500
H130        H  0.79341554  0.31519702  0.75005241     0.01200
H131        H  0.81427032  0.38948240  0.70385772     0.15800
H132        H  0.74319659  0.34555220  0.74856603     0.15600
O133        O  0.64461105  0.17592327  0.32464230    -0.56900
C134        C  0.62962824  0.15525176  0.40735983     0.75700
O135        O  0.67713769  0.13011839  0.33812266    -0.58100
C136        C  0.66367007  0.18980647  0.30486534     0.75700
C137        C  0.71220600  0.18942512  0.40558821     0.78100
Cd138      Cd  0.66725347  0.16251349  0.35965479     1.37500
O139        O  0.65123936  0.17857282  0.40096976    -0.56900
O140        O  0.69893286  0.16415166  0.39923677    -0.55700
C141        C  0.65245296  0.10912441  0.34008990     0.78000
O142        O  0.70713856  0.20285744  0.38770254    -0.58100
O143        O  0.62451380  0.13563457  0.39005089    -0.56600
O144        O  0.68518468  0.19105465  0.30953177    -0.56500
O145        O  0.63533144  0.11323372  0.34992743    -0.55700
O146        O  0.84501489  0.37720216  0.61373994    -0.56900
C147        C  0.82082758  0.34866749  0.69577013     0.75700
O148        O  0.83921665  0.30272191  0.61316399    -0.58100
C149        C  0.85861870  0.37923007  0.58977463     0.75700
C150        C  0.90271833  0.36212381  0.66206835     0.78100
Cd151      Cd  0.84812243  0.34336202  0.64188323     1.37500
O152        O  0.83261708  0.36603374  0.67374810    -0.56900
O153        O  0.89667499  0.37777908  0.65229676    -0.55700
C154        C  0.81648678  0.29518819  0.60148550     0.78000
O155        O  0.88261241  0.33712808  0.66496963    -0.58100
O156        O  0.82127863  0.32786002  0.69357415    -0.56600
O157        O  0.86798587  0.36513085  0.59027607    -0.56500
O158        O  0.80652437  0.30720901  0.61244174    -0.55700
O159        O  0.84061027  0.47829568  0.39076978    -0.56900
C160        C  0.81992441  0.49424468  0.31543257     0.75700
O161        O  0.83893705  0.54898884  0.38453061    -0.58100
C162        C  0.86200966  0.48650136  0.40654270     0.75700
C163        C  0.91410775  0.56501737  0.34877808     0.78100
Cd164      Cd  0.85847566  0.52362444  0.36775753     1.37500
O165        O  0.84447974  0.50210626  0.31338345    -0.56900
O166        O  0.90271398  0.53968939  0.34494279    -0.55700
C167        C  0.83889964  0.54446504  0.41383165     0.78000
O168        O  0.89888094  0.57198741  0.35773905    -0.58100
O169        O  0.81354914  0.50016914  0.34093283    -0.56600
O170        O  0.88172131  0.51140155  0.40339254    -0.56500
O171        O  0.84905305  0.53185906  0.42153066    -0.55700
O172        O  0.64809588  0.48828940  0.61201642    -0.56900
C173        C  0.68818060  0.51214938  0.69578600     0.75700
O174        O  0.73200346  0.56577727  0.60596738    -0.58100
C175        C  0.64699757  0.49852517  0.58641408     0.75700
C176        C  0.66741973  0.56628894  0.64717355     0.78100
Cd177      Cd  0.68690403  0.53268103  0.63394587     1.37500
O178        O  0.67693840  0.49641565  0.67220051    -0.56900
O179        O  0.65252771  0.54042693  0.64923866    -0.55700
C180        C  0.73469736  0.54743005  0.59652713     0.78000
O181        O  0.69225854  0.57720889  0.63974383    -0.58100
O182        O  0.69961924  0.53743373  0.69076587    -0.56600
O183        O  0.66347605  0.52429508  0.58390792    -0.56500
O184        O  0.71695745  0.52358973  0.60673126    -0.55700
O185        O  0.52886867  0.16551958  0.61076399    -0.56900
C186        C  0.51105119  0.18878455  0.68907763     0.75700
O187        O  0.45407254  0.16480226  0.60904569    -0.58100
C188        C  0.51785214  0.14877048  0.58798287     0.75700
C189        C  0.44587543  0.09743708  0.65165510     0.78100
Cd190      Cd  0.48552095  0.15468588  0.63292153     1.37500
O191        O  0.51755479  0.17335322  0.67964153    -0.56900
O192        O  0.46950694  0.11270076  0.66368932    -0.55700
C193        C  0.47236309  0.18503256  0.59250414     0.78000
O194        O  0.43930866  0.10916182  0.63296541    -0.58100
O195        O  0.49200877  0.18718221  0.67394061    -0.56600
O196        O  0.49207211  0.13485244  0.58638620    -0.56500
O197        O  0.49653247  0.19199841  0.59602486    -0.55700
O198        O  0.51023941  0.35315975  0.31516028    -0.56900
C199        C  0.52162899  0.38259556  0.40841205     0.75700
O200        O  0.43786776  0.32784079  0.35923389    -0.58100
C201        C  0.50508913  0.33002617  0.30897120     0.75700
C202        C  0.47024271  0.29542277  0.41355759     0.78100
Cd203      Cd  0.48445270  0.33821149  0.36686374     1.37500
O204        O  0.53059429  0.37611662  0.38576237    -0.56900
O205        O  0.49413204  0.31183947  0.40244273    -0.55700
C206        C  0.44684960  0.35185849  0.35003020     0.78000
O207        O  0.45208302  0.29745149  0.40181548    -0.58100
O208        O  0.49597754  0.36901607  0.41037062    -0.56600
O209        O  0.48942928  0.31089884  0.32816967    -0.56500
O210        O  0.47247410  0.36819385  0.34666429    -0.55700
O211        O  0.47569448  0.83171229  0.38612937    -0.56900
C212        C  0.49700065  0.81613960  0.30747395     0.75700
O213        O  0.56689508  0.89069482  0.34660174    -0.58100
C214        C  0.48502446  0.84801394  0.40950489     0.75700
C215        C  0.54331952  0.82696426  0.40838452     0.78100
Cd216      Cd  0.52193822  0.84815607  0.36567528     1.37500
O217        O  0.49616753  0.83607215  0.31446351    -0.56900
O218        O  0.51801113  0.81603615  0.40536697    -0.55700
C219        C  0.55953134  0.90635066  0.35126108     0.78000
O220        O  0.55925071  0.84716346  0.39044565    -0.58100
O221        O  0.50975037  0.81128740  0.32672583    -0.56600
O222        O  0.51073054  0.86333241  0.41248803    -0.56500
O223        O  0.53522447  0.89470344  0.36073282    -0.55700
O224        O  0.17242872  0.63344826  0.39570831    -0.56900
C225        C  0.19653766  0.66300847  0.30973507     0.75700
O226        O  0.13394067  0.67264736  0.34255565    -0.58100
C227        C  0.15697855  0.63078984  0.41803412     0.75700
C228        C  0.20120331  0.71292474  0.40771228     0.78100
Cd229      Cd  0.16852540  0.66621930  0.36499838     1.37500
O230        O  0.18517646  0.64522745  0.33145995    -0.56900
O231        O  0.20791825  0.69733249  0.39980778    -0.55700
C232        C  0.11358008  0.64773114  0.34536412     0.78000
O233        O  0.18164543  0.70976151  0.39197557    -0.58100
O234        O  0.19505908  0.68310519  0.31265368    -0.56600
O235        O  0.14535705  0.64253412  0.41411562    -0.56500
O236        O  0.11910853  0.63179498  0.35578633    -0.55700
O237        O  0.37227620  0.82894215  0.61579435    -0.56900
C238        C  0.35165787  0.81695132  0.70379064     0.75700
O239        O  0.34142059  0.87818519  0.66914282    -0.58100
C240        C  0.38136437  0.84789247  0.59557294     0.75700
C241        C  0.29971607  0.81235347  0.60841385     0.78100
Cd242      Cd  0.34820429  0.84343530  0.64821338     1.37500
O243        O  0.36995512  0.82894484  0.68268467    -0.56900
O244        O  0.30613935  0.80054106  0.62705956    -0.55700
C245        C  0.36660698  0.89818804  0.66850165     0.78000
O246        O  0.31339868  0.83807453  0.61167743    -0.58100
O247        O  0.33109573  0.81756357  0.70026190    -0.56600
O248        O  0.37727934  0.86583325  0.60132264    -0.56500
O249        O  0.38266118  0.89213044  0.66038550    -0.55700
O250        O  0.35526586  0.51422336  0.33101395    -0.56900
C251        C  0.37638351  0.52019341  0.42001965     0.75700
O252        O  0.29335090  0.45065988  0.40786551    -0.58100
C253        C  0.33428249  0.50208117  0.31347191     0.75700
C254        C  0.35193343  0.44469708  0.36321777     0.78100
Cd255      Cd  0.33606006  0.48139016  0.37515024     1.37500
O256        O  0.37210089  0.52774185  0.39418759    -0.56900
O257        O  0.36868110  0.46986817  0.36976494    -0.55700
C258        C  0.29195929  0.46996655  0.41673963     0.78000
O259        O  0.32700272  0.43588011  0.36139901    -0.58100
O260        O  0.36316500  0.49455252  0.42413154    -0.56600
O261        O  0.31362085  0.47957553  0.32397004    -0.56500
O262        O  0.30906821  0.49303324  0.40420057    -0.55700
O263        O  0.51066460  0.66899793  0.67536726    -0.56900
C264        C  0.50643785  0.65027796  0.58958033     0.75700
O265        O  0.57874768  0.73256670  0.60344887    -0.58100
C266        C  0.52191020  0.68843860  0.69511632     0.75700
C267        C  0.57964382  0.66817726  0.64298494     0.78100
Cd268      Cd  0.54624139  0.68915812  0.63462340     1.37500
O269        O  0.50016663  0.65099566  0.61791380    -0.56900
O270        O  0.55530006  0.65393207  0.63294846    -0.55700
C271        C  0.56070317  0.73601931  0.59523860     0.78000
O272        O  0.58923413  0.69281891  0.64987582    -0.58100
O273        O  0.53136185  0.66775778  0.58235178    -0.56600
O274        O  0.54574970  0.70907149  0.68779311    -0.56500
O275        O  0.53756683  0.71979876  0.60807684    -0.55700
O276        O  0.16907165  0.53282830  0.62374266    -0.56900
C277        C  0.19512644  0.51396033  0.69634782     0.75700
O278        O  0.11380434  0.44021441  0.63919575    -0.58100
C279        C  0.14880215  0.52292394  0.60521137     0.75700
C280        C  0.18311800  0.47511684  0.59465167     0.78100
Cd281      Cd  0.15726992  0.48774646  0.64250940     1.37500
O282        O  0.17504716  0.51520127  0.69238798    -0.56900
O283        O  0.18110108  0.49483815  0.59226262    -0.55700
C284        C  0.10175739  0.44291923  0.66177940     0.78000
O285        O  0.17330018  0.46085845  0.61966883    -0.58100
O286        O  0.19768673  0.50020820  0.67593624    -0.56600
O287        O  0.13190838  0.49718764  0.60586425    -0.56500
O288        O  0.11624755  0.46503567  0.67715952    -0.55700
C289        C  0.37567716  0.78386925  0.75860146     0.87400
C290        C  0.37602404  0.80055149  0.73101530    -0.52900
C291        C  0.35457259  0.80262935  0.73034859     0.10300
C292        C  0.33485581  0.78866040  0.75890738     0.21200
C293        C  0.37510923  0.79916607  0.78789551    -0.53600
C294        C  0.35401850  0.80203392  0.78791237     0.10400
C295        C  0.34721983  0.75671450  0.75892091    -0.53100
C296        C  0.32578665  0.75861624  0.75890712     0.11000
H297        H  0.39180371  0.80939301  0.71290451     0.15500
H298        H  0.31764220  0.79062048  0.75899318     0.01200
H299        H  0.38987312  0.80761369  0.80690022     0.15800
H300        H  0.34421947  0.73702865  0.75944115     0.15600
O301        O  0.66718406  0.19196731  0.09748493    -0.56900
C302        C  0.67009032  0.19570967  0.19445643     0.75700
O303        O  0.67935283  0.13610063  0.16958810    -0.58100
C304        C  0.64333915  0.17141565  0.09064405     0.75700
C305        C  0.72397503  0.19521288  0.09871484     0.78100
Cd306      Cd  0.67608502  0.17022096  0.13955320     1.37500
O307        O  0.65204678  0.18228161  0.17344807    -0.56900
O308        O  0.72132908  0.20889580  0.11923333    -0.55700
C309        C  0.65775481  0.11534301  0.15747016     0.78000
O310        O  0.70638989  0.16951492  0.09997523    -0.58100
O311        O  0.69204541  0.19757347  0.19099736    -0.56600
O312        O  0.63338187  0.15055000  0.10818510    -0.56500
O313        O  0.64576601  0.12055913  0.13760009    -0.55700
O314        O  0.83305119  0.36628870  0.82697550    -0.56900
C315        C  0.83943071  0.37193501  0.91210997     0.75700
O316        O  0.84548888  0.31503030  0.90340473    -0.58100
C317        C  0.82012402  0.34802490  0.80602653     0.75700
C318        C  0.90165007  0.36300841  0.84984160     0.78100
Cd319      Cd  0.84537848  0.34291467  0.86178037     1.37500
O320        O  0.81926632  0.35044955  0.89945283    -0.56900
O321        O  0.89441427  0.37795969  0.85859008    -0.55700
C322        C  0.82079382  0.29454829  0.90088367     0.78000
O323        O  0.88231775  0.33838614  0.84310512    -0.58100
O324        O  0.86258784  0.38078004  0.90038974    -0.56600
O325        O  0.81948554  0.32669740  0.80943610    -0.56500
O326        O  0.80800618  0.29496309  0.87737236    -0.55700
O327        O  0.82877493  0.46854292  0.12637129    -0.56900
C328        C  0.81764681  0.49621885  0.20383716     0.75700
O329        O  0.89401283  0.56159495  0.15911952    -0.58100
C330        C  0.84094957  0.47625558  0.09992003     0.75700
C331        C  0.82497851  0.53412655  0.10115947     0.78100
Cd332      Cd  0.84911302  0.51650165  0.14500114     1.37500
O333        O  0.83445913  0.49100581  0.19613486    -0.56900
O334        O  0.81243208  0.51008299  0.11196975    -0.55700
C335        C  0.90819277  0.55221929  0.15812258     0.78000
O336        O  0.84879910  0.55134073  0.11235872    -0.58100
O337        O  0.81636784  0.51205081  0.18549008    -0.56600
O338        O  0.85750821  0.50183259  0.09583060    -0.56500
O339        O  0.89493096  0.52681055  0.15249600    -0.55700
O340        O  0.66741555  0.50135342  0.83427056    -0.56900
C341        C  0.64865748  0.50344525  0.92564292     0.75700
O342        O  0.73163369  0.56882365  0.90206384    -0.58100
C343        C  0.68745176  0.51343303  0.81528398     0.75700
C344        C  0.67190149  0.57544890  0.86594407     0.78100
Cd345      Cd  0.68633093  0.53711316  0.87541786     1.37500
O346        O  0.64926683  0.49260407  0.90024969    -0.56900
O347        O  0.65551996  0.55008847  0.85982626    -0.55700
C348        C  0.73210160  0.54978118  0.91404634     0.78000
O349        O  0.69586671  0.58374714  0.87402965    -0.58100
O350        O  0.66383073  0.52928521  0.92613502    -0.56600
O351        O  0.70729216  0.53749943  0.82320327    -0.56500
O352        O  0.71335607  0.52576927  0.90501618    -0.55700
O353        O  0.54495434  0.18324372  0.88266029    -0.56900
C354        C  0.51890888  0.19689513  0.80189082     0.75700
O355        O  0.45176965  0.12213637  0.85340273    -0.58100
C356        C  0.53554827  0.16604701  0.90515126     0.75700
C357        C  0.48808061  0.19607610  0.90794616     0.78100
Cd358      Cd  0.49898068  0.16684816  0.86207971     1.37500
O359        O  0.52570915  0.18162603  0.81095897    -0.56900
O360        O  0.51178194  0.20356877  0.90017071    -0.55700
C361        C  0.46085744  0.10807310  0.84762868     0.78000
O362        O  0.46842458  0.17545351  0.89302472    -0.58100
O363        O  0.50264081  0.19777076  0.81987507    -0.56600
O364        O  0.50981466  0.14928452  0.90691491    -0.56500
O365        O  0.48665717  0.12149973  0.84731255    -0.55700
O366        O  0.50846385  0.34977814  0.18905879    -0.56900
C367        C  0.52110205  0.38076206  0.10010529     0.75700
O368        O  0.45284017  0.29323051  0.10295329    -0.58100
C369        C  0.50213659  0.32641507  0.19666263     0.75700
C370        C  0.44205259  0.34687273  0.15246981     0.78100
Cd371      Cd  0.48169404  0.33486598  0.13868312     1.37500
O372        O  0.52843999  0.37381583  0.12401631    -0.56900
O373        O  0.46772830  0.36457284  0.15235076    -0.55700
C374        C  0.47341666  0.29761893  0.08811900     0.78000
O375        O  0.43394916  0.32230638  0.14800066    -0.58100
O376        O  0.49561301  0.36726964  0.09547106    -0.56600
O377        O  0.48523685  0.30674944  0.17867567    -0.56500
O378        O  0.49658393  0.31691767  0.09851769    -0.55700
O379        O  0.18803766  0.65394490  0.10317420    -0.56900
C380        C  0.19505122  0.66161315  0.19857979     0.75700
O381        O  0.17191631  0.69461417  0.09944232    -0.58100
C382        C  0.16580726  0.63299278  0.09291838     0.75700
C383        C  0.11299420  0.64901465  0.16150934     0.78100
Cd384      Cd  0.16777032  0.66594436  0.14382757     1.37500
O385        O  0.18490735  0.64471764  0.17591232    -0.56900
O386        O  0.11938889  0.63246363  0.15909494    -0.55700
C387        C  0.19679624  0.71421469  0.10330179     0.78000
O388        O  0.13232340  0.67411469  0.15724873    -0.58100
O389        O  0.19253744  0.68110948  0.19677477    -0.56600
O390        O  0.14434485  0.62586691  0.10781725    -0.56500
O391        O  0.20777660  0.71325902  0.12839634    -0.55700
O392        O  0.37061181  0.83480988  0.89919788    -0.56900
C393        C  0.35164491  0.81816505  0.81279180     0.75700
O394        O  0.32423038  0.84941898  0.90955280    -0.58100
C395        C  0.38677613  0.85749035  0.91295380     0.75700
C396        C  0.36416856  0.90277199  0.83945624     0.78100
Cd397      Cd  0.34977488  0.85012755  0.86377075     1.37500
O398        O  0.37080979  0.83253846  0.83240872    -0.56900
O399        O  0.38150838  0.89737814  0.84175681    -0.55700
C400        C  0.30581011  0.82398813  0.91081208     0.78000
O401        O  0.33953353  0.88309477  0.84542171    -0.58100
O402        O  0.33094948  0.81869887  0.81569036    -0.56600
O403        O  0.38723602  0.87742192  0.90227594    -0.56500
O404        O  0.30513545  0.81050256  0.88726747    -0.55700
O405        O  0.48426407  0.85236380  0.12349253    -0.56900
C406        C  0.50038757  0.82500917  0.19697499     0.75700
O407        O  0.55948774  0.85225152  0.11600627    -0.58100
C408        C  0.49519846  0.86791726  0.09969878     0.75700
C409        C  0.57072475  0.91613402  0.16320286     0.78100
Cd410      Cd  0.52762621  0.86047647  0.14283258     1.37500
O411        O  0.49604678  0.84251729  0.18966097    -0.56900
O412        O  0.54631675  0.90350456  0.17286769    -0.55700
C413        C  0.54114783  0.83154735  0.10012748     0.78000
O414        O  0.57577726  0.90219943  0.14640251    -0.58100
O415        O  0.51828912  0.82531777  0.18085288    -0.56600
O416        O  0.52059166  0.87970604  0.09676688    -0.56500
O417        O  0.51686927  0.82385534  0.10495328    -0.55700
O418        O  0.49828223  0.63973870  0.88896694    -0.56900
C419        C  0.51955449  0.68868637  0.81506946     0.75700
O420        O  0.56988641  0.72200578  0.91888623    -0.58100
C421        C  0.49765154  0.64389994  0.91818512     0.75700
C422        C  0.57686241  0.66978432  0.86978651     0.78100
Cd423      Cd  0.54006099  0.68671757  0.87753347     1.37500
O424        O  0.50458127  0.68035535  0.83944852    -0.56900
O425        O  0.55202768  0.65391303  0.87807826    -0.55700
C426        C  0.55827792  0.73404941  0.91859642     0.78000
O427        O  0.58544116  0.69440578  0.86464683    -0.58100
O428        O  0.54422077  0.69738945  0.81957521    -0.56600
O429        O  0.51587697  0.66783445  0.92784752    -0.56500
O430        O  0.54077092  0.72641485  0.89686846    -0.55700
O431        O  0.37431092  0.51462575  0.11571879    -0.56900
C432        C  0.32761740  0.49582866  0.19379952     0.75700
O433        O  0.28555900  0.44136975  0.10164015    -0.58100
C434        C  0.37062746  0.50918146  0.08646902     0.75700
C435        C  0.34197342  0.43413067  0.14620053     0.78100
Cd436      Cd  0.32895957  0.47311399  0.13268701     1.37500
O437        O  0.33629063  0.50996731  0.16877626    -0.56900
O438        O  0.35935399  0.45987822  0.14766599    -0.55700
C439        C  0.28156044  0.45944639  0.09560354     0.78000
O440        O  0.31790463  0.42564556  0.13815423    -0.58100
O441        O  0.31844197  0.47086143  0.19070220    -0.56600
O442        O  0.34841701  0.48674649  0.07905294    -0.56500
O443        O  0.29761233  0.48223494  0.10923474    -0.55700
O444        O  0.17801978  0.53413854  0.88698529    -0.56900
C445        C  0.19510981  0.51418201  0.80748674     0.75700
O446        O  0.16140551  0.45390677  0.89693492    -0.58100
C447        C  0.16123292  0.52405134  0.90977110     0.75700
C448        C  0.10443536  0.45178162  0.84535219     0.78100
Cd449      Cd  0.16136363  0.48896866  0.86407001     1.37500
O450        O  0.17700453  0.51767545  0.81477493    -0.56900
O451        O  0.11683556  0.47742017  0.84781282    -0.55700
C452        C  0.18483492  0.47107295  0.90902280     0.78000
O453        O  0.11902870  0.44302755  0.84890759    -0.58100
O454        O  0.19662093  0.49807410  0.82508646    -0.56600
O455        O  0.14394425  0.49834371  0.91031162    -0.56500
O456        O  0.19754850  0.49536911  0.89883457    -0.55700
C457        C  0.23563114  0.46969686  0.04474797    -0.11000
C458        C  0.23061495  0.45285283  0.01872690     0.11600
C459        C  0.23982500  0.43589091  0.01972460    -0.02800
C460        C  0.25474081  0.43724332  0.04635119    -0.05500
C461        C  0.26102003  0.45518037  0.07175486    -0.16300
C462        C  0.25011988  0.47073790  0.07159906     0.02600
C463        C  0.21761980  0.45511769  0.98987951     0.12600
C464        C  0.23456957  0.41698666  0.99237166     0.63200
H465        H  0.26295415  0.42533176  0.04664084     0.12600
C466        C  0.25367109  0.48852614  0.09943407     0.55300
H467        H  0.22883699  0.48284058  0.04344809     0.08400
C468        C  0.18930191  0.44367176  0.98807203    -0.05400
C469        C  0.17905910  0.44795470  0.96040819    -0.06100
C470        C  0.19630237  0.46383851  0.93504408    -0.15700
C471        C  0.22444902  0.47452479  0.93658399    -0.01300
C472        C  0.23462928  0.47028050  0.96417989    -0.08900
C473        C  0.17014514  0.42757459  0.01551489     0.65400
H474        H  0.15765380  0.44002781  0.95902979     0.10900
C475        C  0.24383972  0.49033122  0.90925556     0.63800
H476        H  0.25629781  0.47936957  0.96619609     0.08200
F477        F  0.23560319  0.49566022  0.09780618    -0.19300
F478        F  0.28001346  0.51240472  0.09970440    -0.15500
F479        F  0.24864525  0.47443957  0.12747952    -0.19000
F480        F  0.24873172  0.43227399  0.96588618    -0.22400
F481        F  0.20688255  0.40017348  0.98554717    -0.23800
F482        F  0.24294911  0.40044274  0.99929329    -0.17800
F483        F  0.25028243  0.51648499  0.90823623    -0.20300
F484        F  0.23177372  0.47702181  0.88099837    -0.21500
F485        F  0.26796499  0.49254390  0.91234816    -0.18600
F486        F  0.14318226  0.41667028  0.00814010    -0.18700
F487        F  0.17743737  0.44453881  0.04143495    -0.22600
F488        F  0.17162215  0.40617133  0.02349578    -0.24200
C489        C  0.44955082  0.57606125  0.96196847    -0.11000
C490        C  0.44291868  0.58502272  0.98856874     0.11600
C491        C  0.45348077  0.61304493  0.99143993    -0.02800
C492        C  0.47056874  0.63127371  0.96736152    -0.05500
C493        C  0.47727876  0.62243544  0.94057222    -0.16300
C494        C  0.46630911  0.59421268  0.93754454     0.02600
C495        C  0.42433061  0.56444870  0.01279143     0.12600
C496        C  0.44675256  0.62365709  0.01982140     0.63200
H497        H  0.47904272  0.65282015  0.96942139     0.12600
C498        C  0.47263082  0.58324993  0.90921806     0.55300
H499        H  0.44128899  0.55454099  0.96050454     0.08400
C500        C  0.39563949  0.54697332  0.00830902    -0.05400
C501        C  0.37910128  0.52882233  0.03274102    -0.06100
C502        C  0.39021282  0.52821685  0.06173484    -0.15700
C503        C  0.41905417  0.54562903  0.06605758    -0.01300
C504        C  0.43566843  0.56302304  0.04104477    -0.08900
C505        C  0.38255744  0.54783151  0.97800854     0.65400
H506        H  0.35709850  0.51537477  0.02963385     0.10900
C507        C  0.43233010  0.54623385  0.09687752     0.63800
H508        H  0.45772090  0.57643687  0.04370700     0.08200
F509        F  0.46202339  0.58658585  0.88209661    -0.19300
F510        F  0.46124650  0.55559315  0.91223910    -0.15500
F511        F  0.50066694  0.59715160  0.90607505    -0.19000
F512        F  0.45692153  0.62001978  0.04708985    -0.22400
F513        F  0.41869546  0.60961709  0.02264892    -0.23800
F514        F  0.45809211  0.65132946  0.01713000    -0.17800
F515        F  0.46057525  0.56169248  0.09436776    -0.20300
F516        F  0.42298194  0.51990559  0.10556632    -0.21500
F517        F  0.42602808  0.55774399  0.12033061    -0.18600
F518        F  0.35424199  0.53100831  0.97967447    -0.18700
F519        F  0.39038476  0.53920173  0.95283597    -0.22600
F520        F  0.39072430  0.57427284  0.97229196    -0.24200
C521        C  0.53685788  0.77934585  0.04317565    -0.11000
C522        C  0.56124446  0.79610532  0.02600316     0.11600
C523        C  0.58001732  0.82392956  0.03486718    -0.02800
C524        C  0.57296677  0.83446324  0.05970159    -0.05500
C525        C  0.54792376  0.81802526  0.07609063    -0.16300
C526        C  0.52993859  0.78964354  0.06837645     0.02600
C527        C  0.56555151  0.78392631  0.99789544     0.12600
C528        C  0.60757269  0.84213682  0.01852353     0.63200
H529        H  0.58684846  0.85589437  0.06609808     0.12600
C530        C  0.50385938  0.76996688  0.08696092     0.55300
H531        H  0.52298646  0.75803930  0.03623768     0.08400
C532        C  0.57505940  0.76727209  0.00018365    -0.05400
C533        C  0.57373413  0.75268289  0.97322860    -0.06100
C534        C  0.56320520  0.75398032  0.94403618    -0.15700
C535        C  0.55543042  0.77218229  0.94135676    -0.01300
C536        C  0.55656388  0.78658496  0.96844449    -0.08900
C537        C  0.58608514  0.76345070  0.03042847     0.65400
H538        H  0.58001242  0.73914116  0.97555286     0.10900
C539        C  0.54545519  0.77626539  0.91042248     0.63800
H540        H  0.54929271  0.79932558  0.96716930     0.08200
F541        F  0.50966304  0.77285074  0.11898257    -0.19300
F542        F  0.49215832  0.74289278  0.07893254    -0.15500
F543        F  0.48481458  0.77527355  0.08089249    -0.19000
F544        F  0.60395091  0.84311787  0.98641026    -0.22400
F545        F  0.62254805  0.83168741  0.02338781    -0.23800
F546        F  0.62261813  0.86871268  0.03005715    -0.17800
F547        F  0.51942021  0.75326876  0.90372949    -0.20300
F548        F  0.56311828  0.78090306  0.88615717    -0.21500
F549        F  0.54432205  0.79860267  0.91175390    -0.18600
F550        F  0.61190874  0.76997853  0.02474930    -0.18700
F551        F  0.56896802  0.73630791  0.03974956    -0.22600
F552        F  0.58822873  0.77965061  0.05513740    -0.24200
C553        C  0.47490571  0.88862793  0.02612490    -0.11000
C554        C  0.44642476  0.86955725  0.02670442     0.11600
C555        C  0.43358539  0.85217479  0.05319845    -0.02800
C556        C  0.45020136  0.85294088  0.07724706    -0.05500
C557        C  0.47900364  0.87108855  0.07590201    -0.16300
C558        C  0.49144188  0.89069161  0.05099894     0.02600
C559        C  0.43101656  0.86690826  0.99793159     0.12600
C560        C  0.40256310  0.83265982  0.05572409     0.63200
H561        H  0.44071946  0.83868604  0.09679361     0.12600
C562        C  0.52183813  0.91398824  0.05035887     0.55300
H563        H  0.48420825  0.90170614  0.00555846     0.08400
C564        C  0.42510048  0.88583268  0.99039506    -0.05400
C565        C  0.41095525  0.88207907  0.96216425    -0.06100
C566        C  0.40311455  0.86048181  0.94111488    -0.15700
C567        C  0.41021843  0.84223659  0.94818423    -0.01300
C568        C  0.42407819  0.84588765  0.97664223    -0.08900
C569        C  0.43366591  0.90984632  0.01201321     0.65400
H570        H  0.40558024  0.89594509  0.95652768     0.10900
C571        C  0.40394102  0.81940639  0.92581626     0.63800
H572        H  0.42968408  0.83226082  0.98267313     0.08200
F573        F  0.52995943  0.92689353  0.07951582    -0.19300
F574        F  0.52778684  0.93364951  0.02809067    -0.15500
F575        F  0.53683440  0.90397644  0.04289641    -0.19000
F576        F  0.39227648  0.81299478  0.03225315    -0.22400
F577        F  0.39128181  0.84700892  0.05246156    -0.23800
F578        F  0.39429906  0.81941029  0.08467079    -0.17800
F579        F  0.41354047  0.82995073  0.89583478    -0.20300
F580        F  0.37600209  0.79933298  0.92469686    -0.21500
F581        F  0.41630230  0.80704658  0.93542341    -0.18600
F582        F  0.42542337  0.92546461  0.00036154    -0.18700
F583        F  0.46184146  0.92681183  0.01497935    -0.22600
F584        F  0.42215969  0.90039195  0.04160213    -0.24200
C585        C  0.17907171  0.61519906  0.01196878    -0.11000
C586        C  0.16091855  0.58653776  0.01253775     0.11600
C587        C  0.14424260  0.57306683  0.03938081    -0.02800
C588        C  0.14630722  0.58903541  0.06508044    -0.05500
C589        C  0.16483417  0.61775382  0.06484571    -0.16300
C590        C  0.18113720  0.63123513  0.03757459     0.02600
C591        C  0.16092127  0.57110229  0.98526645     0.12600
C592        C  0.12482032  0.54196166  0.04108474     0.63200
H593        H  0.13388691  0.57913794  0.08596329     0.12600
C594        C  0.19992438  0.66233137  0.03483274     0.55300
H595        H  0.19178661  0.62489410  0.99121598     0.08400
C596        C  0.14635433  0.56715305  0.95701724    -0.05400
C597        C  0.14751557  0.55222981  0.93222721    -0.06100
C598        C  0.16230186  0.54105488  0.93540975    -0.15700
C599        C  0.17647213  0.54464709  0.96376584    -0.01300
C600        C  0.17609511  0.56030304  0.98807012    -0.08900
C601        C  0.12939697  0.57825600  0.95334111     0.65400
H602        H  0.13650918  0.54872382  0.91038153     0.10900
C603        C  0.19165362  0.53170734  0.96826817     0.63800
H604        H  0.18726198  0.56386743  0.00979840     0.08200
F605        F  0.18571059  0.67319538  0.04237104    -0.19300
F606        F  0.20995664  0.67066227  0.00442735    -0.15500
F607        F  0.22201854  0.67293263  0.05501872    -0.19000
F608        F  0.13965606  0.53107743  0.04134031    -0.22400
F609        F  0.10748193  0.53173283  0.01525470    -0.23800
F610        F  0.10883338  0.53317253  0.06809575    -0.17800
F611        F  0.21241959  0.54219584  0.94615931    -0.20300
F612        F  0.17376592  0.50357783  0.96447655    -0.21500
F613        F  0.20313211  0.53678665  0.99811106    -0.18600
F614        F  0.11619978  0.57128257  0.92438095    -0.18700
F615        F  0.14608314  0.60652767  0.95564922    -0.22600
F616        F  0.10967271  0.56770777  0.97673521    -0.24200
C617        C  0.21623550  0.75835284  0.02896201    -0.11000
C618        C  0.24343979  0.76745038  0.02487805     0.11600
C619        C  0.25643252  0.76265542  0.04907627    -0.02800
C620        C  0.24082116  0.74664836  0.07539813    -0.05500
C621        C  0.21280901  0.73542366  0.07828858    -0.16300
C622        C  0.20056481  0.74237195  0.05525591     0.02600
C623        C  0.25762785  0.78159329  0.99472279     0.12600
C624        C  0.28653825  0.77404631  0.04681616     0.63200
H625        H  0.25017147  0.74167761  0.09323184     0.12600
C626        C  0.17106799  0.73288447  0.05786175     0.55300
H627        H  0.20699714  0.76299438  0.01058012     0.08400
C628        C  0.25490828  0.76687380  0.96711785    -0.05400
C629        C  0.26990873  0.78156317  0.93985406    -0.06100
C630        C  0.28753540  0.81046833  0.93920023    -0.15700
C631        C  0.28904441  0.82514844  0.96674368    -0.01300
C632        C  0.27383093  0.81025783  0.99383436    -0.08900
C633        C  0.23651252  0.73570845  0.96675356     0.65400
H634        H  0.26851241  0.77036059  0.91900669     0.10900
C635        C  0.30679550  0.85632220  0.96835624     0.63800
H636        H  0.27496783  0.82090629  0.01511667     0.08200
F637        F  0.15351586  0.70532464  0.05042227    -0.19300
F638        F  0.16566759  0.74714987  0.03737493    -0.15500
F639        F  0.16579507  0.73716718  0.08825570    -0.19000
F640        F  0.30232227  0.80235172  0.04522791    -0.22400
F641        F  0.29115386  0.76409230  0.02006084    -0.23800
F642        F  0.29511395  0.76689970  0.07278758    -0.17800
F643        F  0.30315339  0.86573525  0.99638703    -0.20300
F644        F  0.33417813  0.86658722  0.96648740    -0.21500
F645        F  0.30006551  0.86660535  0.94384779    -0.18600
F646        F  0.23692837  0.72525384  0.93777077    -0.18700
F647        F  0.20978349  0.72621811  0.97303504    -0.22600
F648        F  0.24506473  0.72575747  0.98948753    -0.24200
C649        C  0.37565233  0.40270951  0.18274215    -0.11000
C650        C  0.37340646  0.38604780  0.15788270     0.11600
C651        C  0.35694638  0.38175462  0.13132454    -0.02800
C652        C  0.34545860  0.39655911  0.12913486    -0.05500
C653        C  0.35001814  0.41535419  0.15263287    -0.16300
C654        C  0.36408433  0.41739285  0.18065161     0.02600
C655        C  0.39120289  0.37622837  0.15837060     0.12600
C656        C  0.35237732  0.36224434  0.10505211     0.63200
H657        H  0.33400991  0.39461434  0.10828824     0.12600
C658        C  0.36670096  0.43488020  0.20832145     0.55300
H659        H  0.38777022  0.40522261  0.20317272     0.08400
C660        C  0.41867784  0.39332972  0.14778007    -0.05400
C661        C  0.43418209  0.38272033  0.14669481    -0.06100
C662        C  0.42339483  0.35563758  0.15579569    -0.15700
C663        C  0.39598904  0.33866844  0.16722011    -0.01300
C664        C  0.38038223  0.34939586  0.16834964    -0.08900
C665        C  0.43172406  0.42286062  0.13778050     0.65400
H666        H  0.45509660  0.39570812  0.13825833     0.10900
C667        C  0.38329116  0.30962281  0.17856736     0.63800
H668        H  0.35938508  0.33677111  0.17658414     0.08200
F669        F  0.38400139  0.46235529  0.20049082    -0.19300
F670        F  0.37718060  0.43059713  0.23489162    -0.15500
F671        F  0.34117351  0.42834649  0.21601198    -0.19000
F672        F  0.33906055  0.33599189  0.11709428    -0.22400
F673        F  0.37718991  0.37020580  0.09234170    -0.23800
F674        F  0.33654626  0.36161332  0.08084674    -0.17800
F675        F  0.35766169  0.29794909  0.19177169    -0.20300
F676        F  0.39983464  0.30972045  0.20135952    -0.21500
F677        F  0.38031953  0.29339689  0.15340142    -0.18600
F678        F  0.45753641  0.43489216  0.12494876    -0.18700
F679        F  0.43425749  0.43811071  0.16380610    -0.22600
F680        F  0.41579616  0.42398690  0.11521280    -0.24200
C681        C  0.40093214  0.03265016  0.83023107    -0.11000
C682        C  0.41330048  0.01930898  0.83707445     0.11600
C683        C  0.44137855  0.03535043  0.84553668    -0.02800
C684        C  0.45564680  0.06395632  0.84856718    -0.05500
C685        C  0.44325131  0.07747503  0.84287758    -0.16300
C686        C  0.41543325  0.06153416  0.83279363     0.02600
C687        C  0.39671235  0.98856616  0.83536505     0.12600
C688        C  0.45638061  0.02234794  0.85136108     0.63200
H689        H  0.47693870  0.07608926  0.85571355     0.12600
C690        C  0.40125094  0.07480351  0.82394876     0.55300
H691        H  0.37967600  0.02014140  0.82292067     0.08400
C692        C  0.37899398  0.97143325  0.86017808    -0.05400
C693        C  0.36708701  0.94307185  0.85899172    -0.06100
C694        C  0.37285467  0.93140251  0.83447428    -0.15700
C695        C  0.38928452  0.94820989  0.80874323    -0.01300
C696        C  0.40065977  0.97650201  0.80955895    -0.08900
C697        C  0.37372379  0.98317274  0.88860606     0.65400
H698        H  0.35439928  0.92993669  0.87838528     0.10900
C699        C  0.39439185  0.93634025  0.78033574     0.63800
H700        H  0.41394345  0.98981389  0.79066935     0.08200
F701        F  0.39817748  0.08620054  0.85049381    -0.19300
F702        F  0.37550072  0.05602112  0.81126447    -0.15500
F703        F  0.41663533  0.09503408  0.80156649    -0.19000
F704        F  0.45770112  0.01101070  0.82362090    -0.22400
F705        F  0.44281264  0.00207955  0.87408834    -0.23800
F706        F  0.48295212  0.04132761  0.86173299    -0.17800
F707        F  0.40977236  0.95600457  0.75735581    -0.20300
F708        F  0.36961091  0.91577303  0.76702296    -0.21500
F709        F  0.40842418  0.92565802  0.78940321    -0.18600
F710        F  0.35652296  0.96304308  0.91038948    -0.18700
F711        F  0.36152097  0.99561974  0.87897347    -0.22600
F712        F  0.39818730  0.00229644  0.90361041    -0.24200
C713        C  0.48451301  0.28013999  0.00557207    -0.11000
C714        C  0.47032499  0.25158978  0.00740473     0.11600
C715        C  0.45552073  0.23775273  0.03537891    -0.02800
C716        C  0.45608522  0.25323735  0.06100122    -0.05500
C717        C  0.47116000  0.28193825  0.05950303    -0.16300
C718        C  0.48490562  0.29557013  0.03095596     0.02600
C719        C  0.47408575  0.23732160  0.98118076     0.12600
C720        C  0.43929804  0.20676470  0.03810492     0.63200
H721        H  0.44544450  0.24313352  0.08277457     0.12600
C722        C  0.49950578  0.32630161  0.02700623     0.55300
H723        H  0.49597809  0.29039874  0.98424607     0.08400
C724        C  0.45934591  0.22957611  0.95231954    -0.05400
C725        C  0.46397362  0.21560252  0.92925438    -0.06100
C726        C  0.48387570  0.21056799  0.93347413    -0.15700
C727        C  0.49943601  0.21950644  0.96198319    -0.01300
C728        C  0.49412539  0.23263320  0.98523392    -0.08900
C729        C  0.43943125  0.23673041  0.94565689     0.65400
H730        H  0.45260216  0.20918127  0.90728645     0.10900
C731        C  0.52127706  0.21484671  0.96845150     0.63800
H732        H  0.50575325  0.23955486  0.00703543     0.08200
F733        F  0.50785995  0.33463287  0.99610897    -0.19300
F734        F  0.52248579  0.34051939  0.04606323    -0.15500
F735        F  0.48198192  0.33319140  0.03515383    -0.19000
F736        F  0.45642648  0.19866847  0.03456408    -0.22400
F737        F  0.41940858  0.19445144  0.01486990    -0.23800
F738        F  0.42644931  0.19737748  0.06716117    -0.17800
F739        F  0.54324093  0.23087249  0.94831409    -0.20300
F740        F  0.51054145  0.18749010  0.96402296    -0.21500
F741        F  0.53104103  0.22174847  0.99915943    -0.18600
F742        F  0.42658306  0.22665709  0.91669875    -0.18700
F743        F  0.45335101  0.26491621  0.94527171    -0.22600
F744        F  0.41948898  0.22582582  0.96881130    -0.24200
C745        C  0.65612687  0.62691750  0.88686425    -0.11000
C746        C  0.63827169  0.62231999  0.86223713     0.11600
C747        C  0.63361759  0.60424667  0.83734775    -0.02800
C748        C  0.64567491  0.59001060  0.83906516    -0.05500
C749        C  0.66284091  0.59384771  0.86422486    -0.16300
C750        C  0.66860156  0.61303847  0.88837070     0.02600
C751        C  0.62299902  0.63492057  0.86456772     0.12600
C752        C  0.61566693  0.59974013  0.80931196     0.63200
H753        H  0.64155189  0.57544086  0.82076775     0.12600
C754        C  0.68703034  0.61826689  0.91621210     0.55300
H755        H  0.65966806  0.64108412  0.90540364     0.08400
C756        C  0.59902674  0.62278660  0.88317754    -0.05400
C757        C  0.58505070  0.63507726  0.88403212    -0.06100
C758        C  0.59419952  0.65930558  0.86731723    -0.15700
C759        C  0.61851259  0.67165722  0.84882172    -0.01300
C760        C  0.63250107  0.65918932  0.84794775    -0.08900
C761        C  0.58855962  0.59726611  0.90284851     0.65400
H762        H  0.56684782  0.62588986  0.89849890     0.10900
C763        C  0.62941684  0.69734871  0.82940739     0.63800
H764        H  0.65102642  0.66822913  0.83410604     0.08200
F765        F  0.67816627  0.59377965  0.93080626    -0.19300
F766        F  0.68711168  0.63507508  0.93869912    -0.15500
F767        F  0.71360426  0.63097127  0.90567367    -0.19000
F768        F  0.62683386  0.62427707  0.79357087    -0.22400
F769        F  0.58961208  0.58990568  0.81951869    -0.23800
F770        F  0.61346574  0.58104178  0.78800434    -0.17800
F771        F  0.65196770  0.70450816  0.81148322    -0.20300
F772        F  0.63732636  0.71911443  0.84922693    -0.21500
F773        F  0.60932970  0.69303875  0.80892035    -0.18600
F774        F  0.56293513  0.58653898  0.91548369    -0.18700
F775        F  0.60648380  0.60383259  0.92752816    -0.22600
F776        F  0.58647352  0.57705712  0.88454933    -0.24200
C777        C  0.61842547  0.48051414  0.00890335    -0.11000
C778        C  0.59767802  0.45279242  0.00374045     0.11600
C779        C  0.59348141  0.44151818  0.97310266    -0.02800
C780        C  0.61043955  0.45881145  0.94828692    -0.05500
C781        C  0.63142688  0.48680056  0.95325857    -0.16300
C782        C  0.63592900  0.49773844  0.98446275     0.02600
C783        C  0.57955946  0.43645690  0.03062432     0.12600
C784        C  0.57121284  0.41133902  0.96678342     0.63200
H785        H  0.60727025  0.45051783  0.92467333     0.12600
C786        C  0.65933538  0.52712461  0.99265886     0.55300
H787        H  0.62071150  0.48855353  0.03252155     0.08400
C788        C  0.58707932  0.42521879  0.05402152    -0.05400
C789        C  0.56764104  0.40799223  0.07708177    -0.06100
C790        C  0.54134959  0.40217517  0.07769430    -0.15700
C791        C  0.53490627  0.41563047  0.05586029    -0.01300
C792        C  0.55432112  0.43260510  0.03266984    -0.08900
C793        C  0.61535593  0.43122476  0.05450956     0.65400
H794        H  0.57263814  0.39821443  0.09427039     0.10900
C795        C  0.50782113  0.41222312  0.05646288     0.63800
H796        H  0.54962027  0.44239968  0.01510942     0.08200
F797        F  0.66124545  0.53203406  0.02488629    -0.19300
F798        F  0.65535266  0.54513725  0.97811579    -0.15500
F799        F  0.68392704  0.53235422  0.98295773    -0.19000
F800        F  0.54575441  0.40542544  0.97315533    -0.22400
F801        F  0.57518106  0.39525733  0.98583899    -0.23800
F802        F  0.57126021  0.40430475  0.93562313    -0.17800
F803        F  0.50852666  0.43142402  0.03752563    -0.20300
F804        F  0.50190247  0.41560768  0.08694626    -0.21500
F805        F  0.48710368  0.38645424  0.04542619    -0.18600
F806        F  0.61817776  0.41785414  0.07911680    -0.18700
F807        F  0.63507184  0.45905877  0.05832637    -0.22600
F808        F  0.62008809  0.42282452  0.02647341    -0.24200
C809        C  0.98284810  0.60718343  0.18325363    -0.11000
C810        C  0.99681376  0.59966885  0.16467545     0.11600
C811        C  0.98161965  0.57641340  0.14471634    -0.02800
C812        C  0.95293410  0.56196219  0.14333063    -0.05500
C813        C  0.93876032  0.56956662  0.16147330    -0.16300
C814        C  0.95397619  0.59243506  0.18221059     0.02600
C815        C  0.02726816  0.61562334  0.16740559     0.12600
C816        C  0.99563923  0.56668057  0.12516554     0.63200
H817        H  0.94121878  0.54437469  0.12780738     0.12600
C818        C  0.93989224  0.60052604  0.20420117     0.55300
H819        H  0.99484566  0.62464707  0.19889324     0.08400
C820        C  0.04536909  0.63936629  0.14903095    -0.05400
C821        C  0.07361915  0.65080926  0.14927749    -0.06100
C822        C  0.08410823  0.63914778  0.16713455    -0.15700
C823        C  0.06626313  0.61701120  0.18781145    -0.01300
C824        C  0.03809321  0.60569194  0.18762575    -0.08900
C825        C  0.03472991  0.65209968  0.12875017     0.65400
H826        H  0.08752881  0.66811290  0.13416061     0.10900
C827        C  0.07659835  0.60482482  0.20955520     0.63800
H828        H  0.02401900  0.58799094  0.20217109     0.08200
F829        F  0.92715095  0.60952347  0.18679282    -0.19300
F830        F  0.95825633  0.62147443  0.22454613    -0.15500
F831        F  0.92064056  0.57816943  0.22233122    -0.19000
F832        F  0.00866377  0.55935944  0.14491530    -0.22400
F833        F  0.01477273  0.58734736  0.10518614    -0.23800
F834        F  0.97716524  0.54408154  0.10680195    -0.17800
F835        F  0.05793752  0.58928492  0.23332954    -0.20300
F836        F  0.10087590  0.62545860  0.22379664    -0.21500
F837        F  0.08086743  0.58808859  0.19231873    -0.18600
F838        F  0.05573608  0.67543118  0.11331427    -0.18700
F839        F  0.02116639  0.65940155  0.14755524    -0.22600
F840        F  0.01680113  0.63354462  0.10618937    -0.24200
C841        C  0.77502398  0.53294715  0.04380716    -0.11000
C842        C  0.79311536  0.55171338  0.02090674     0.11600
C843        C  0.82167312  0.56699212  0.02614352    -0.02800
C844        C  0.83118983  0.56145935  0.05342747    -0.05500
C845        C  0.81306872  0.54112159  0.07536427    -0.16300
C846        C  0.78433306  0.52690309  0.07073692     0.02600
C847        C  0.78109457  0.55352799  0.99105302     0.12600
C848        C  0.84188518  0.58902491  0.00303787     0.63200
H849        H  0.85300502  0.57244555  0.05726912     0.12600
C850        C  0.76327512  0.50520357  0.09363169     0.55300
H851        H  0.75326539  0.52200813  0.03948911     0.08400
C852        C  0.77114422  0.53326447  0.96719038    -0.05400
C853        C  0.75723670  0.53429743  0.94114888    -0.06100
C854        C  0.75214301  0.55427329  0.93860778    -0.15700
C855        C  0.76266533  0.57495842  0.96227546    -0.01300
C856        C  0.77722502  0.57427538  0.98800005    -0.08900
C857        C  0.77430830  0.51000718  0.96979108     0.65400
H858        H  0.74901300  0.51854384  0.92314287     0.10900
C859        C  0.75727561  0.59669575  0.96161754     0.63800
H860        H  0.78469721  0.58926715  0.00680783     0.08200
F861        F  0.76294034  0.48204431  0.09174285    -0.19300
F862        F  0.73707833  0.49733177  0.08689288    -0.15500
F863        F  0.76954371  0.51536945  0.12416531    -0.19000
F864        F  0.83872367  0.61002578  0.00288004    -0.22400
F865        F  0.83732297  0.57826473  0.97288152    -0.23800
F866        F  0.86872878  0.60000598  0.01116430    -0.17800
F867        F  0.72936631  0.58432103  0.96170815    -0.20300
F868        F  0.76881765  0.61266215  0.93478134    -0.21500
F869        F  0.76841922  0.61392585  0.98760275    -0.18600
F870        F  0.76479619  0.49359192  0.94306973    -0.18700
F871        F  0.75958363  0.49355846  0.99539301    -0.22600
F872        F  0.80160682  0.52054813  0.97367518    -0.24200
C873        C  0.97874942  0.40488187  0.86522790    -0.11000
C874        C  0.98691643  0.39398814  0.84263416     0.11600
C875        C  0.96686607  0.37132488  0.82414272    -0.02800
C876        C  0.93923388  0.36183036  0.82691038    -0.05500
C877        C  0.93113064  0.37377941  0.84832111    -0.16300
C878        C  0.95114269  0.39493794  0.86889663     0.02600
C879        C  0.01678103  0.40693223  0.83929082     0.12600
C880        C  0.97473203  0.35703041  0.80216906     0.63200
H881        H  0.92374140  0.34496273  0.81232275     0.12600
C882        C  0.94357956  0.40645177  0.89549687     0.55300
H883        H  0.99442694  0.42157938  0.87987768     0.08400
C884        C  0.03415995  0.43139843  0.82179238    -0.05400
C885        C  0.06263570  0.44438605  0.82269656    -0.06100
C886        C  0.07422175  0.43366974  0.84026904    -0.15700
C887        C  0.05659456  0.40833783  0.85640031    -0.01300
C888        C  0.02810363  0.39558199  0.85586480    -0.08900
C889        C  0.02268318  0.44404463  0.80283956     0.65400
H890        H  0.07626113  0.46365958  0.81039089     0.10900
C891        C  0.06771835  0.39531455  0.87515918     0.63800
H892        H  0.01435958  0.37690950  0.86915418     0.08200
F893        F  0.93529575  0.42179785  0.88313002    -0.19300
F894        F  0.96548482  0.42334139  0.91547635    -0.15500
F895        F  0.92268972  0.38519978  0.91355915    -0.19000
F896        F  0.98481590  0.34536395  0.81975494    -0.22400
F897        F  0.99470043  0.37567178  0.78122523    -0.23800
F898        F  0.95255480  0.33644973  0.78486784    -0.17800
F899        F  0.08571275  0.41331715  0.89810759    -0.20300
F900        F  0.08115084  0.38873614  0.85496936    -0.21500
F901        F  0.04709241  0.37146735  0.89016069    -0.18600
F902        F  0.04298530  0.46716101  0.78646948    -0.18700
F903        F  0.00999875  0.45161310  0.82282358    -0.22600
F904        F  0.00379371  0.42529688  0.78107353    -0.24200
C905        C  0.81078380  0.39306102  0.97744466    -0.11000
C906        C  0.83486030  0.41269754  0.99361593     0.11600
C907        C  0.86022695  0.41886540  0.98324155    -0.02800
C908        C  0.86064891  0.40532340  0.95636655    -0.05500
C909        C  0.83660168  0.38566083  0.93972870    -0.16300
C910        C  0.81105598  0.37939829  0.95049124     0.02600
C911        C  0.83312733  0.42721681  0.02087908     0.12600
C912        C  0.88675718  0.43974423  0.00052494     0.63200
H913        H  0.87999054  0.40991767  0.94834001     0.12600
C914        C  0.78413334  0.35880206  0.93374592     0.55300
H915        H  0.79169437  0.38870102  0.98614534     0.08400
C916        C  0.83361502  0.45080422  0.01643536    -0.05400
C917        C  0.83533437  0.46558662  0.04315789    -0.06100
C918        C  0.83588279  0.45720783  0.07398854    -0.15700
C919        C  0.83334791  0.43245501  0.07854787    -0.01300
C920        C  0.83208013  0.41782754  0.05165869    -0.08900
C921        C  0.83236264  0.46033441  0.98361024     0.65400
H922        H  0.83645747  0.48411280  0.04015330     0.10900
C923        C  0.83292545  0.42207587  0.11140640     0.63800
H924        H  0.83096567  0.39928811  0.05436993     0.08200
F925        F  0.76246694  0.35766185  0.94703395    -0.19300
F926        F  0.77809806  0.33282815  0.93581006    -0.15500
F927        F  0.78597202  0.36614549  0.90232838    -0.19000
F928        F  0.88505184  0.43167883  0.03156066    -0.22400
F929        F  0.89146371  0.46517421  0.00009487    -0.23800
F930        F  0.90909281  0.44243233  0.98680098    -0.17800
F931        F  0.83308913  0.39915185  0.11039634    -0.20300
F932        F  0.80948316  0.41501692  0.12711269    -0.21500
F933        F  0.85570647  0.44226555  0.12826506    -0.18600
F934        F  0.83434728  0.48446563  0.98464229    -0.18700
F935        F  0.80772259  0.44048675  0.96945606    -0.22600
F936        F  0.85357752  0.46487938  0.96510674    -0.24200
C937        C  0.61208123  0.03722462  0.16632225    -0.11000
C938        C  0.63079094  0.03243466  0.17756277     0.11600
C939        C  0.65825808  0.05488656  0.18322408    -0.02800
C940        C  0.66594738  0.08170637  0.17766559    -0.05500
C941        C  0.64735142  0.08655226  0.16541852    -0.16300
C942        C  0.61967038  0.06377024  0.16007308     0.02600
C943        C  0.62097894  0.00328345  0.17913263     0.12600
C944        C  0.67944582  0.05046276  0.19408528     0.63200
H945        H  0.68695176  0.09906934  0.18156572     0.12600
C946        C  0.59793417  0.06689129  0.14751375     0.55300
H947        H  0.59139061  0.01957847  0.16140749     0.08400
C948        C  0.60242384  0.98512275  0.20268355    -0.05400
C949        C  0.58786565  0.95664528  0.19766156    -0.06100
C950        C  0.59133950  0.94590686  0.17002511    -0.15700
C951        C  0.61177684  0.96430407  0.14782903    -0.01300
C952        C  0.62601429  0.99271597  0.15277690    -0.08900
C953        C  0.59743436  0.99579522  0.23246743     0.65400
H954        H  0.57263615  0.94247090  0.21472470     0.10900
C955        C  0.61752828  0.95436437  0.11799353     0.63800
H956        H  0.63999673  0.00704527  0.13491159     0.08200
F957        F  0.59724188  0.08558650  0.16575630    -0.19300
F958        F  0.57200217  0.04237039  0.14827372    -0.15500
F959        F  0.60361061  0.07561276  0.11639922    -0.19000
F960        F  0.68324066  0.03675239  0.17093220    -0.22400
F961        F  0.67074918  0.03507119  0.22150585    -0.23800
F962        F  0.70452356  0.07503909  0.20012001    -0.17800
F963        F  0.59414122  0.93948998  0.09958841    -0.20300
F964        F  0.62599155  0.93810882  0.12602510    -0.21500
F965        F  0.63802621  0.97590079  0.09985003    -0.18600
F966        F  0.57990623  0.97477668  0.25317421    -0.18700
F967        F  0.58593679  0.00936605  0.22485423    -0.22600
F968        F  0.62193669  0.01374143  0.24799953    -0.24200
C969        C  0.62583957  0.17886596  0.00674375    -0.11000
C970        C  0.59813345  0.16814072  0.00977846     0.11600
C971        C  0.58500104  0.15841211  0.03952136    -0.02800
C972        C  0.60039355  0.15978002  0.06555296    -0.05500
C973        C  0.62844443  0.17134865  0.06272401    -0.16300
C974        C  0.64148328  0.18116204  0.03285282     0.02600
C975        C  0.58372222  0.16843159  0.98149639     0.12600
C976        C  0.55504892  0.14713339  0.04367518     0.63200
H977        H  0.59075385  0.15221090  0.08844661     0.12600
C978        C  0.67172874  0.19377075  0.02828656     0.55300
H979        H  0.63526217  0.18601906  0.98368741     0.08400
C980        C  0.58675512  0.19259484  0.97170532    -0.05400
C981        C  0.57129636  0.19112458  0.94581306    -0.06100
C982        C  0.55337894  0.16647571  0.92946847    -0.15700
C983        C  0.55164976  0.14270868  0.93801887    -0.01300
C984        C  0.56695773  0.14413147  0.96411163    -0.08900
C985        C  0.60667150  0.21991689  0.98806927     0.65400
H986        H  0.57276783  0.20917738  0.93839395     0.10900
C987        C  0.53449521  0.11633092  0.91903552     0.63800
H988        H  0.56572692  0.12618497  0.97146305     0.08200
F989        F  0.68731725  0.21863754  0.04396952    -0.19300
F990        F  0.67917373  0.19852784  0.99670985    -0.15500
F991        F  0.67771460  0.17633573  0.03995347    -0.19000
F992        F  0.53879534  0.12417216  0.02491964    -0.22400
F993        F  0.55111377  0.16678805  0.03503094    -0.23800
F994        F  0.54649788  0.13969878  0.07469630    -0.17800
F995        F  0.54191901  0.12175499  0.88749618    -0.20300
F996        F  0.50700122  0.10528784  0.92194615    -0.21500
F997        F  0.53821427  0.09682324  0.92919256    -0.18600
F998        F  0.60319104  0.23965827  0.97825512    -0.18700
F999        F  0.63319873  0.22909518  0.98104857    -0.22600
F1000       F  0.60299773  0.21718714  0.02048384    -0.24200
C1001       C  0.76768430  0.20846972  0.02548733    -0.11000
C1002       C  0.77418250  0.23398001  0.01593925     0.11600
C1003       C  0.76747101  0.24817410  0.03589869    -0.02800
C1004       C  0.75264492  0.23532602  0.06378987    -0.05500
C1005       C  0.74442563  0.20894898  0.07252389    -0.16300
C1006       C  0.75340652  0.19587764  0.05390584     0.02600
C1007       C  0.78642508  0.24477845  0.98410302     0.12600
C1008       C  0.77543387  0.27660017  0.02753480     0.63200
H1009       H  0.74617556  0.24541396  0.07827401     0.12600
C1010       C  0.74849464  0.16908821  0.06387638     0.55300
H1011       H  0.77329609  0.19812648  0.01004083     0.08400
C1012       C  0.81497929  0.26092970  0.97889837    -0.05400
C1013       C  0.82520816  0.27493632  0.94997263    -0.06100
C1014       C  0.80782915  0.27307652  0.92610562    -0.15700
C1015       C  0.77901451  0.25367523  0.92976364    -0.01300
C1016       C  0.76886098  0.23998536  0.95900448    -0.08900
C1017       C  0.83453977  0.26369296  0.00394096     0.65400
H1018       H  0.84714385  0.28860990  0.94649816     0.10900
C1019       C  0.75885385  0.24809907  0.90386918     0.63800
H1020       H  0.74698497  0.22658544  0.96322492     0.08200
F1021       F  0.75473354  0.17018527  0.09558204    -0.19300
F1022       F  0.76483545  0.16404311  0.04695944    -0.15500
F1023       F  0.72143926  0.14752416  0.05872817    -0.19000
F1024       F  0.76349492  0.27576493  0.99924208    -0.22400
F1025       F  0.80355231  0.29474523  0.02475248    -0.23800
F1026       F  0.76708978  0.28670753  0.05045309    -0.17800
F1027       F  0.73249133  0.22579714  0.91100379    -0.20300
F1028       F  0.76630020  0.24232747  0.87576347    -0.21500
F1029       F  0.75844384  0.27070164  0.89996292    -0.18600
F1030       F  0.86152424  0.28028906  0.99390698    -0.18700
F1031       F  0.82822762  0.23810806  0.01078605    -0.22600
F1032       F  0.83240583  0.27493156  0.03124962    -0.24200
C1033       C  0.44184836  0.59022395  0.54869114    -0.11000
C1034       C  0.45080382  0.59462936  0.51727204     0.11600
C1035       C  0.47746339  0.61754411  0.50947582    -0.02800
C1036       C  0.49479763  0.63489480  0.53392109    -0.05500
C1037       C  0.48618458  0.63047227  0.56571188    -0.16300
C1038       C  0.45902815  0.60766610  0.57329828     0.02600
C1039       C  0.43153598  0.57502734  0.49288783     0.12600
C1040       C  0.48727476  0.62417926  0.47538132     0.63200
H1041       H  0.51521390  0.65253497  0.52808308     0.12600
C1042       C  0.44784811  0.60144143  0.60686281     0.55300
H1043       H  0.42106394  0.57283221  0.55368209     0.08400
C1044       C  0.42711051  0.54944067  0.48790167    -0.05400
C1045       C  0.40898001  0.53222290  0.46379186    -0.06100
C1046       C  0.39555658  0.53997485  0.44446768    -0.15700
C1047       C  0.39963417  0.56545802  0.45010769    -0.01300
C1048       C  0.41749812  0.58243583  0.47450713    -0.08900
C1049       C  0.44186628  0.54065790  0.50760768     0.65400
H1050       H  0.40542497  0.51261195  0.45955508     0.10900
C1051       C  0.38500618  0.57470889  0.43103729     0.63800
H1052       H  0.42098463  0.60194784  0.47930097     0.08200
F1053       F  0.46440421  0.59856276  0.62648828    -0.19300
F1054       F  0.42166392  0.57732878  0.60858947    -0.15500
F1055       F  0.44669069  0.62245539  0.61772359    -0.19000
F1056       F  0.47324141  0.63247612  0.45942371    -0.22400
F1057       F  0.48272043  0.60136107  0.46051307    -0.23800
F1058       F  0.51500698  0.64505395  0.47340344    -0.17800
F1059       F  0.35705924  0.55450443  0.43126774    -0.20300
F1060       F  0.39453988  0.58010454  0.40024868    -0.21500
F1061       F  0.38943615  0.59838171  0.44322940    -0.18600
F1062       F  0.43502487  0.51524139  0.49847023    -0.18700
F1063       F  0.43500991  0.53900397  0.53914163    -0.22600
F1064       F  0.46987520  0.55954909  0.50427213    -0.24200
C1065       C  0.22749685  0.46004269  0.54811095    -0.11000
C1066       C  0.22288077  0.46468559  0.51708200     0.11600
C1067       C  0.20324921  0.47002563  0.51142481    -0.02800
C1068       C  0.19025038  0.47249037  0.53749175    -0.05500
C1069       C  0.19587770  0.46930195  0.56880477    -0.16300
C1070       C  0.21457014  0.46257039  0.57427456     0.02600
C1071       C  0.24051734  0.46598156  0.49134010     0.12600
C1072       C  0.19616549  0.47314766  0.47799661     0.63200
H1073       H  0.17563050  0.47719570  0.53360397     0.12600
C1074       C  0.22225944  0.45981681  0.60747650     0.55300
H1075       H  0.24234862  0.45560309  0.55169863     0.08400
C1076       C  0.26716792  0.49006252  0.48594653    -0.05400
C1077       C  0.28285019  0.49019750  0.46121365    -0.06100
C1078       C  0.27304782  0.46710956  0.44190989    -0.15700
C1079       C  0.24635273  0.44292119  0.44745403    -0.01300
C1080       C  0.23055741  0.44280425  0.47229089    -0.08900
C1081       C  0.27902860  0.51557314  0.50625344     0.65400
H1082       H  0.30332169  0.50846745  0.45706493     0.10900
C1083       C  0.23422994  0.41765585  0.42687134     0.63800
H1084       H  0.21022610  0.42456556  0.47712217     0.08200
F1085       F  0.24217924  0.45508554  0.60729537    -0.19300
F1086       F  0.19952049  0.43806399  0.62281337    -0.15500
F1087       F  0.23239423  0.48375401  0.62418265    -0.19000
F1088       F  0.18500818  0.44888737  0.46160899    -0.22400
F1089       F  0.21942451  0.49398243  0.46241920    -0.23800
F1090       F  0.17729940  0.47929010  0.47775476    -0.17800
F1091       F  0.24843469  0.40634686  0.43142758    -0.20300
F1092       F  0.23581311  0.42473503  0.39540251    -0.21500
F1093       F  0.20695759  0.39779461  0.43397810    -0.18600
F1094       F  0.30503014  0.53691916  0.49647303    -0.18700
F1095       F  0.28084760  0.50975310  0.53735947    -0.22600
F1096       F  0.26243581  0.52444932  0.50464003    -0.24200
C1097       C  0.14659602  0.60723595  0.50414390    -0.11000
C1098       C  0.15013746  0.58628195  0.50180030     0.11600
C1099       C  0.15456402  0.57898537  0.47186188    -0.02800
C1100       C  0.15630731  0.59382699  0.44508931    -0.05500
C1101       C  0.15327047  0.61524764  0.44731251    -0.16300
C1102       C  0.14836441  0.62219134  0.47746837     0.02600
C1103       C  0.14900778  0.57214812  0.53116936     0.12600
C1104       C  0.15734489  0.55555282  0.46829854     0.63200
H1105       H  0.15998056  0.58870273  0.42206475     0.12600
C1106       C  0.14594754  0.64579948  0.48202911     0.55300
H1107       H  0.14274704  0.61196701  0.52732061     0.08400
C1108       C  0.17213750  0.58286159  0.55083174    -0.05400
C1109       C  0.17048827  0.56671041  0.57605040    -0.06100
C1110       C  0.14652026  0.54035452  0.58220102    -0.15700
C1111       C  0.12245299  0.53093261  0.56419682    -0.01300
C1112       C  0.12432179  0.54720725  0.53891907    -0.08900
C1113       C  0.19862056  0.61094107  0.54466829     0.65400
H1114       H  0.18850873  0.57418009  0.59026869     0.10900
C1115       C  0.09477225  0.50420467  0.57130953     0.63800
H1116       H  0.10669621  0.54014775  0.52409237     0.08200
F1117       F  0.16876025  0.66965826  0.46960432    -0.19300
F1118       F  0.14419954  0.65055950  0.51366260    -0.15500
F1119       F  0.12257640  0.63984796  0.46719003    -0.19000
F1120       F  0.13350123  0.53129658  0.47814289    -0.22400
F1121       F  0.17894807  0.56056143  0.48641716    -0.40600
F1122       F  0.16208631  0.55217865  0.43723032    -0.17800
F1123       F  0.08823270  0.50365980  0.60279054    -0.20300
F1124       F  0.09530546  0.48200912  0.56468743    -0.21500
F1125       F  0.07402730  0.50134204  0.55326293    -0.18600
F1126       F  0.21864587  0.61748530  0.56664300    -0.18700
F1127       F  0.19389316  0.63081517  0.54629793    -0.22600
F1128       F  0.20856561  0.61155897  0.51497385    -0.24200
C1129       C  0.24637994  0.75752452  0.55059163    -0.11000
C1130       C  0.25054889  0.77402001  0.52453110     0.11600
C1131       C  0.26752375  0.80287539  0.52796636    -0.02800
C1132       C  0.28126064  0.81424836  0.55686317    -0.05500
C1133       C  0.27951175  0.79787900  0.58199701    -0.16300
C1134       C  0.26108194  0.76882681  0.57910832     0.02600
C1135       C  0.23907672  0.76044209  0.49322631     0.12600
C1136       C  0.27171191  0.82161455  0.50094022     0.63200
H1137       H  0.29487725  0.83633070  0.55922715     0.12600
C1138       C  0.25759646  0.74956774  0.60508665     0.55300
H1139       H  0.23286797  0.73548107  0.54752609     0.08400
C1140       C  0.25195704  0.75141303  0.47464620    -0.05400
C1141       C  0.23985073  0.73794815  0.44579463    -0.06100
C1142       C  0.21476238  0.73215909  0.43529457    -0.15700
C1143       C  0.20190272  0.74138715  0.45404098    -0.01300
C1144       C  0.21460037  0.75570539  0.48251201    -0.08900
C1145       C  0.27801213  0.75520978  0.48577782     0.65400
H1146       H  0.24948492  0.73073017  0.43174810     0.10900
C1147       C  0.17430686  0.73511002  0.44520618     0.63800
H1148       H  0.20504799  0.76259123  0.49731723     0.08200
F1149       F  0.28104485  0.75048839  0.60735523    -0.19300
F1150       F  0.23585142  0.72265169  0.59907189    -0.15500
F1151       F  0.25260866  0.75707997  0.63367287    -0.19000
F1152       F  0.24715728  0.81756559  0.49397560    -0.22400
F1153       F  0.28102604  0.81599854  0.47437861    -0.23800
F1154       F  0.29069777  0.84903484  0.50843006    -0.17800
F1155       F  0.16550670  0.74554027  0.46707944    -0.20300
F1156       F  0.15476773  0.70701684  0.44382088    -0.21500
F1157       F  0.17615096  0.74668520  0.41618924    -0.18600
F1158       F  0.28812051  0.74650329  0.46335527    -0.18700
F1159       F  0.27274787  0.74012104  0.51298137    -0.22600
F1160       F  0.29810674  0.78259194  0.49200136    -0.24200
C1161       C  0.45830884  0.87224985  0.47216819    -0.11000
C1162       C  0.43508430  0.84716277  0.48260642     0.11600
C1163       C  0.42591408  0.82278414  0.46594422    -0.02800
C1164       C  0.44240484  0.82394559  0.44142539    -0.05500
C1165       C  0.46706463  0.84879212  0.43275028    -0.16300
C1166       C  0.47440742  0.87361893  0.44713942     0.02600
C1167       C  0.42149424  0.84715633  0.51183790     0.12600
C1168       C  0.39871726  0.79590372  0.47381256     0.63200
H1169       H  0.43650122  0.80532923  0.42939742     0.12600
C1170       C  0.49898295  0.90152915  0.43630606     0.55300
H1171       H  0.46429562  0.89073432  0.48462844     0.08400
C1172       C  0.43016209  0.84505661  0.54213048    -0.05400
C1173       C  0.41648528  0.84528009  0.56901443    -0.06100
C1174       C  0.39531507  0.84855630  0.56637045    -0.15700
C1175       C  0.38699214  0.85110756  0.53595163    -0.01300
C1176       C  0.40039774  0.85043046  0.50911299    -0.08900
C1177       C  0.45411729  0.84314811  0.54590343     0.65400
H1178       H  0.42251296  0.84335525  0.59239136     0.10900
C1179       C  0.36318835  0.85316147  0.53168271     0.63800
H1180       H  0.39448086  0.85234549  0.48566029     0.08200
F1181       F  0.52287170  0.90564464  0.44681719    -0.19300
F1182       F  0.49816724  0.92255797  0.44802866    -0.15500
F1183       F  0.49936798  0.90312877  0.40364887    -0.19000
F1184       F  0.37772649  0.79862385  0.46870582    -0.22400
F1185       F  0.39821174  0.78897889  0.50509440    -0.23800
F1186       F  0.39391379  0.77456019  0.45516527    -0.17800
F1187       F  0.35715815  0.85318265  0.50009501    -0.20300
F1188       F  0.36940669  0.87717709  0.54504424    -0.21500
F1189       F  0.34009431  0.83095068  0.54601348    -0.18600
F1190       F  0.45887984  0.84072072  0.57730041    -0.18700
F1191       F  0.47763389  0.86652763  0.53383278    -0.22600
F1192       F  0.44898539  0.82055299  0.52984246    -0.24200
C1193       C  0.55139426  0.78146602  0.46211880    -0.11000
C1194       C  0.56452757  0.79887588  0.48821253     0.11600
C1195       C  0.57510184  0.82693728  0.48552873    -0.02800
C1196       C  0.56908320  0.83581049  0.45804218    -0.05500
C1197       C  0.55346106  0.81761261  0.43327479    -0.16300
C1198       C  0.54563276  0.79037109  0.43455859     0.02600
C1199       C  0.56519827  0.78634699  0.51834300     0.12600
C1200       C  0.59251901  0.84725660  0.51153871     0.63200
H1201       H  0.57554912  0.85678670  0.45625165     0.12600
C1202       C  0.53166188  0.77098769  0.40675479     0.55300
H1203       H  0.54455112  0.76037931  0.46414814     0.08400
C1204       C  0.54196614  0.77156557  0.53828741    -0.05400
C1205       C  0.54243284  0.75722441  0.56429431    -0.06100
C1206       C  0.56487141  0.75625260  0.57062150    -0.15700
C1207       C  0.58861057  0.77204319  0.55111865    -0.01300
C1208       C  0.58824206  0.78683612  0.52533918    -0.08900
C1209       C  0.51635969  0.77021709  0.53151194     0.65400
H1210       H  0.52444756  0.74552220  0.57915967     0.10900
C1211       C  0.61396997  0.77279350  0.55646613     0.63800
H1212       H  0.60560543  0.79805758  0.50948123     0.08200
F1213       F  0.50626625  0.76555848  0.40152967    -0.19300
F1214       F  0.52793794  0.74625555  0.41189694    -0.15500
F1215       F  0.54764678  0.78287977  0.37998670    -0.19000
F1216       F  0.61572230  0.84803265  0.51591904    -0.22400
F1217       F  0.57792474  0.83951711  0.53951609    -0.23800
F1218       F  0.60082724  0.87352498  0.50411263    -0.17800
F1219       F  0.63487317  0.79047684  0.53572502    -0.20300
F1220       F  0.60771427  0.74691239  0.55197045    -0.21500
F1221       F  0.62362681  0.78171603  0.58686706    -0.18600
F1222       F  0.49639233  0.75546205  0.55434673    -0.18700
F1223       F  0.50527879  0.75759420  0.50272137    -0.22600
F1224       F  0.52286265  0.79639902  0.53068055    -0.24200
C1225       C  0.41972271  0.39367546  0.32789950    -0.11000
C1226       C  0.39783362  0.38284933  0.34913547     0.11600
C1227       C  0.38964691  0.35934270  0.36709512    -0.02800
C1228       C  0.40529541  0.34883664  0.36515093    -0.05500
C1229       C  0.42877369  0.36111753  0.34596026    -0.16300
C1230       C  0.43549191  0.38331714  0.32593518     0.02600
C1231       C  0.38529268  0.39789530  0.35360227     0.12600
C1232       C  0.36469882  0.34569279  0.38850028     0.63200
H1233       H  0.39999461  0.33165060  0.37988623     0.12600
C1234       C  0.45934281  0.39654280  0.30287054     0.55300
H1235       H  0.42523732  0.41134028  0.31394925     0.08400
C1236       C  0.39680901  0.42027209  0.37482894    -0.05400
C1237       C  0.38455873  0.43415729  0.37763047    -0.06100
C1238       C  0.36174626  0.42707680  0.35940348    -0.15700
C1239       C  0.35051877  0.40497018  0.33759443    -0.01300
C1240       C  0.36249515  0.39061410  0.33526924    -0.08900
C1241       C  0.42255402  0.43011719  0.39370442     0.65400
H1242       H  0.39311562  0.45117713  0.39398768     0.10900
C1243       C  0.32689258  0.39727568  0.31595881     0.63800
H1244       H  0.35441129  0.37376141  0.31875217     0.08200
F1245       F  0.48380548  0.41264131  0.31916059    -0.19300
F1246       F  0.45815759  0.41313960  0.28126144    -0.15500
F1247       F  0.45888588  0.37654604  0.28602549    -0.19000
F1248       F  0.34172097  0.33701768  0.37066343    -0.22400
F1249       F  0.36797348  0.36394599  0.41118506    -0.23800
F1250       F  0.36028106  0.32309857  0.40389455    -0.17800
F1251       F  0.32085673  0.37686403  0.29477269    -0.20300
F1252       F  0.33355818  0.41998231  0.29872533    -0.21500
F1253       F  0.30365161  0.38774837  0.33370018    -0.18600
F1254       F  0.42960283  0.45146681  0.41388151    -0.18700
F1255       F  0.44422739  0.43933141  0.37327402    -0.22600
F1256       F  0.41874199  0.40901826  0.41182175    -0.24200
C1257       C  0.41198237  0.97663658  0.67770978    -0.11000
C1258       C  0.39225919  0.98201012  0.67734129     0.11600
C1259       C  0.36419854  0.95980156  0.67867943    -0.02800
C1260       C  0.35673221  0.93275322  0.67714672    -0.05500
C1261       C  0.37642922  0.92719805  0.67499929    -0.16300
C1262       C  0.40469697  0.94964923  0.67711010     0.02600
C1263       C  0.40191525  0.01108779  0.67307976     0.12600
C1264       C  0.34237021  0.96479828  0.68216624     0.63200
H1265       H  0.33525606  0.91573337  0.67665909     0.12600
C1266       C  0.42738482  0.94564579  0.67841204     0.55300
H1267       H  0.43335814  0.99399251  0.67742834     0.08400
C1268       C  0.41444789  0.03106948  0.69746597    -0.05400
C1269       C  0.42760731  0.05889804  0.68961755    -0.06100
C1270       C  0.42781997  0.06742170  0.65860877    -0.15700
C1271       C  0.41355311  0.04721568  0.63462880    -0.01300
C1272       C  0.40123910  0.01944493  0.64229691    -0.08900
C1273       C  0.41433251  0.02440189  0.73206308     0.65400
H1274       H  0.43812334  0.07426230  0.70802207     0.10900
C1275       C  0.41234676  0.05487019  0.60076574     0.63800
H1276       H  0.39160156  0.00394041  0.62398839     0.08200
F1277       F  0.42158569  0.92662850  0.70150444    -0.19300
F1278       F  0.45246606  0.96976797  0.68577597    -0.15500
F1279       F  0.42992399  0.93677846  0.64934876    -0.19000
F1280       F  0.34253001  0.97877615  0.65613168    -0.22400
F1281       F  0.34753571  0.98024419  0.70905370    -0.23800
F1282       F  0.31642461  0.94050010  0.68495043    -0.17800
F1283       F  0.39831992  0.03212549  0.58116060    -0.20300
F1284       F  0.43858404  0.07269412  0.58892164    -0.21500
F1285       F  0.39894447  0.06727059  0.59985107    -0.18600
F1286       F  0.40125497  0.03314879  0.74934140    -0.18700
F1287       F  0.44099710  0.03807789  0.74278834    -0.22600
F1288       F  0.40092336  0.99672247  0.73757656    -0.24200
C1289       C  0.44475156  0.19968969  0.52017128    -0.11000
C1290       C  0.46240351  0.22845326  0.51881811     0.11600
C1291       C  0.48084667  0.24302734  0.54421708    -0.02800
C1292       C  0.48290268  0.22815648  0.56850556    -0.05500
C1293       C  0.46620327  0.19931578  0.56902855    -0.16300
C1294       C  0.44618175  0.18482302  0.54501208     0.02600
C1295       C  0.46190091  0.24283700  0.49009097     0.12600
C1296       C  0.49845270  0.27417072  0.54541941     0.63200
H1297       H  0.49787755  0.23897759  0.58717247     0.12600
C1298       C  0.42710307  0.15371598  0.54502132     0.55300
H1299       H  0.43019784  0.18893279  0.50112100     0.08400
C1300       C  0.47674471  0.24615088  0.46230885    -0.05400
C1301       C  0.47824408  0.26279683  0.43757993    -0.06100
C1302       C  0.46463696  0.27544074  0.43914973    -0.15700
C1303       C  0.44827284  0.27056272  0.46619350    -0.01300
C1304       C  0.44713004  0.25419496  0.49110528    -0.08900
C1305       C  0.49089376  0.23206514  0.45885278     0.65400
H1306       H  0.49031425  0.26624732  0.41673400     0.10900
C1307       C  0.43338634  0.28384952  0.46977702     0.63800
H1308       H  0.43535119  0.25082177  0.51220390     0.08200
F1309       F  0.41061371  0.14355422  0.51841623    -0.19300
F1310       F  0.41029615  0.14478441  0.57131861    -0.15500
F1311       F  0.44218017  0.14306047  0.54572103    -0.19000
F1312       F  0.48190316  0.28314098  0.54552522    -0.22400
F1313       F  0.51552263  0.28493519  0.51936154    -0.23800
F1314       F  0.51454119  0.28430070  0.57236578    -0.17800
F1315       F  0.41966233  0.27727508  0.49835947    -0.20300
F1316       F  0.41428145  0.27505474  0.44589872    -0.21500
F1317       F  0.45205447  0.31205361  0.46836004    -0.18600
F1318       F  0.50470584  0.23836948  0.43037351    -0.18700
F1319       F  0.47161834  0.20393601  0.46006173    -0.22600
F1320       F  0.50961464  0.24006374  0.48301741    -0.24200
C1321       C  0.62027365  0.58835277  0.66577075    -0.11000
C1322       C  0.63486852  0.61441127  0.65182546     0.11600
C1323       C  0.66148520  0.62588738  0.63986426    -0.02800
C1324       C  0.67162648  0.60982628  0.63985775    -0.05500
C1325       C  0.65620827  0.58280014  0.65165768    -0.16300
C1326       C  0.63034946  0.57223186  0.66604284     0.02600
C1327       C  0.62115486  0.62859009  0.64894489     0.12600
C1328       C  0.67891197  0.65485440  0.62672350     0.63200
H1329       H  0.69153767  0.61812968  0.62969230     0.12600
C1330       C  0.61321326  0.54422345  0.68183759     0.55300
H1331       H  0.60033935  0.58038325  0.67567459     0.08400
C1332       C  0.60135731  0.62127444  0.62520785    -0.05400
C1333       C  0.58906083  0.63529336  0.62377746    -0.06100
C1334       C  0.59542460  0.65603851  0.64551877    -0.15700
C1335       C  0.61493839  0.66295940  0.66965646    -0.01300
C1336       C  0.62747879  0.64909093  0.67083145    -0.08900
C1337       C  0.59272697  0.59821885  0.60195388     0.65400
H1338       H  0.57388706  0.62976819  0.60570866     0.10900
C1339       C  0.62154854  0.68382081  0.69505118     0.63800
H1340       H  0.64215146  0.65385903  0.68925633     0.08200
F1341       F  0.60319931  0.52376470  0.65934695    -0.19300
F1342       F  0.59096832  0.54001257  0.69783048    -0.15500
F1343       F  0.62900135  0.54203369  0.70360724    -0.19000
F1344       F  0.68393521  0.67328541  0.65018480    -0.22400
F1345       F  0.66540682  0.65717175  0.60194515    -0.23800
F1346       F  0.70393708  0.66194935  0.61569186    -0.17800
F1347       F  0.63951676  0.68598019  0.71741524    -0.20300
F1348       F  0.59772039  0.67601999  0.71044343    -0.21500
F1349       F  0.63358142  0.70939767  0.68157777    -0.18600
F1350       F  0.57543123  0.59627356  0.57877145    -0.18700
F1351       F  0.57900597  0.57346498  0.61787134    -0.22600
F1352       F  0.61547064  0.60261572  0.58715372    -0.24200
C1353       C  0.60223552  0.44165865  0.52658788    -0.11000
C1354       C  0.59520992  0.45509731  0.50637639     0.11600
C1355       C  0.60390756  0.48206001  0.51330362    -0.02800
C1356       C  0.62016208  0.49504170  0.54023126    -0.05500
C1357       C  0.62786112  0.48194493  0.56027557    -0.16300
C1358       C  0.61882505  0.45470977  0.55334485     0.02600
C1359       C  0.57738281  0.43956268  0.47908128     0.12600
C1360       C  0.59599543  0.49700425  0.49247165     0.63200
H1361       H  0.62697626  0.51570394  0.54589964     0.12600
C1362       C  0.62728992  0.43969964  0.57308564     0.55300
H1363       H  0.59467093  0.42075257  0.52095069     0.08400
C1364       C  0.58739458  0.43498446  0.45145715    -0.05400
C1365       C  0.56850775  0.41717327  0.42831360    -0.06100
C1366       C  0.54015788  0.40397881  0.43197930    -0.15700
C1367       C  0.53049022  0.41032374  0.45886964    -0.01300
C1368       C  0.54943633  0.42765055  0.48220681    -0.08900
C1369       C  0.61778806  0.44843295  0.44671301     0.65400
H1370       H  0.57582625  0.41276760  0.40755532     0.10900
C1371       C  0.50052788  0.39890836  0.46371057     0.63800
H1372       H  0.54250996  0.43154012  0.50375638     0.08200
F1373       F  0.65555637  0.45518867  0.57490002    -0.19300
F1374       F  0.61811963  0.41451086  0.56013328    -0.15500
F1375       F  0.61638221  0.43507064  0.60315406    -0.19000
F1376       F  0.56810915  0.48435093  0.49447950    -0.22400
F1377       F  0.60283009  0.49669551  0.46135283    -0.23800
F1378       F  0.60927586  0.52412640  0.50148710    -0.17800
F1379       F  0.48506696  0.37083281  0.46812973    -0.20300
F1380       F  0.49098205  0.40496168  0.43772191    -0.21500
F1381       F  0.49677072  0.41010633  0.48999436    -0.18600
F1382       F  0.62324615  0.44291428  0.41705647    -0.18700
F1383       F  0.62704385  0.43886158  0.46904342    -0.22600
F1384       F  0.63230782  0.47656632  0.44970435    -0.24200
C1385       C  0.99042667  0.61065945  0.36530185    -0.11000
C1386       C  0.00090579  0.61174398  0.33532722     0.11600
C1387       C  0.98285798  0.59992743  0.30913900    -0.02800
C1388       C  0.95461039  0.58678236  0.31422059    -0.05500
C1389       C  0.94399433  0.58472435  0.34451837    -0.16300
C1390       C  0.96225885  0.59709786  0.37062401     0.02600
C1391       C  0.03016413  0.62201297  0.33342162     0.12600
C1392       C  0.99326325  0.60056878  0.27618498     0.63200
H1393       H  0.94033195  0.57673883  0.29474808     0.12600
C1394       C  0.95367342  0.59524872  0.40492246     0.55300
H1395       H  0.00436544  0.61918797  0.38529072     0.08400
C1396       C  0.05207022  0.65016751  0.33546603    -0.05400
C1397       C  0.07908476  0.65776178  0.33785592    -0.06100
C1398       C  0.08479783  0.63810462  0.33843478    -0.15700
C1399       C  0.06268150  0.60991804  0.33434850    -0.01300
C1400       C  0.03579137  0.60249433  0.33265392    -0.08900
C1401       C  0.04681846  0.67197293  0.33657372     0.65400
H1402       H  0.09585607  0.67919724  0.34082312     0.10900
C1403       C  0.06685762  0.58737798  0.33193676     0.63800
H1404       H  0.01860791  0.58102344  0.33167792     0.08200
F1405       F  0.96646511  0.62147207  0.41691443    -0.19300
F1406       F  0.96198829  0.58183563  0.42232332    -0.15500
F1407       F  0.92583633  0.58144971  0.40917778    -0.19000
F1408       F  0.00446427  0.58603791  0.27560061    -0.22400
F1409       F  0.01301794  0.62738486  0.26730460    -0.23800
F1410       F  0.97242381  0.58894128  0.25406196    -0.17800
F1411       F  0.04343574  0.56292955  0.32143776    -0.20300
F1412       F  0.07347215  0.58269763  0.36130925    -0.21500
F1413       F  0.08754258  0.59482468  0.31058974    -0.18600
F1414       F  0.07073256  0.69801693  0.33248359    -0.18700
F1415       F  0.03564995  0.67108992  0.36551580    -0.22600
F1416       F  0.02881890  0.66753624  0.31286371    -0.24200
C1417       C  0.78842414  0.54859064  0.46326308    -0.11000
C1418       C  0.80341893  0.56031363  0.49130191     0.11600
C1419       C  0.83097719  0.56907602  0.49263535    -0.02800
C1420       C  0.84237734  0.56516728  0.46594088    -0.05500
C1421       C  0.82707264  0.55249345  0.43830385    -0.16300
C1422       C  0.79969018  0.54427099  0.43671799     0.02600
C1423       C  0.78855693  0.55972606  0.51997184     0.12600
C1424       C  0.84794963  0.58154479  0.52253470     0.63200
H1425       H  0.86312163  0.57093719  0.46692089     0.12600
C1426       C  0.78179272  0.52908817  0.40810701     0.55300
H1427       H  0.76723073  0.54149547  0.46297288     0.08400
C1428       C  0.78188028  0.57846819  0.52499478    -0.05400
C1429       C  0.76580291  0.57484563  0.55155312    -0.06100
C1430       C  0.75588756  0.55290492  0.57285676    -0.15700
C1431       C  0.76413185  0.53519683  0.56866733    -0.01300
C1432       C  0.77985020  0.53869771  0.54195109    -0.08900
C1433       C  0.79060782  0.60140820  0.50166929     0.65400
H1434       H  0.75953863  0.58829379  0.55477862     0.10900
C1435       C  0.75656770  0.51253849  0.59196226     0.63800
H1436       H  0.78495823  0.52444016  0.53750613     0.08200
F1437       F  0.75540166  0.52157173  0.41209676    -0.19300
F1438       F  0.78025468  0.50546994  0.40309637    -0.15500
F1439       F  0.79277045  0.54563943  0.38163312    -0.19000
F1440       F  0.83738707  0.56199353  0.54615513    -0.22400
F1441       F  0.84758792  0.60322370  0.53254339    -0.23800
F1442       F  0.87498444  0.59130106  0.51773725    -0.17800
F1443       F  0.77218233  0.50271848  0.58734745    -0.20300
F1444       F  0.72933189  0.49083634  0.58827113    -0.21500
F1445       F  0.76111402  0.52240832  0.62259111    -0.18600
F1446       F  0.78536557  0.61950382  0.51309336    -0.18700
F1447       F  0.77642163  0.59042133  0.47363958    -0.22600
F1448       F  0.81838451  0.61612615  0.49570228    -0.24200
C1449       C  0.98122611  0.40572040  0.66383138    -0.11000
C1450       C  0.98554787  0.38615658  0.67282896     0.11600
C1451       C  0.96307461  0.35981966  0.68241519    -0.02800
C1452       C  0.93641693  0.35309247  0.67956917    -0.05500
C1453       C  0.93171065  0.37210316  0.66826549    -0.16300
C1454       C  0.95481018  0.39941493  0.66139026     0.02600
C1455       C  0.01418302  0.39452198  0.67140964     0.12600
C1456       C  0.96736539  0.33913046  0.69568412     0.63200
H1457       H  0.91896805  0.33261967  0.68571225     0.12600
C1458       C  0.95221828  0.42198799  0.65070696     0.55300
H1459       H  0.99902747  0.42600161  0.65767149     0.08400
C1460       C  0.02630442  0.39521390  0.64236871    -0.05400
C1461       C  0.05491115  0.40900136  0.64109044    -0.06100
C1462       C  0.07172784  0.42281345  0.66753932    -0.15700
C1463       C  0.05917100  0.41986515  0.69723269    -0.01300
C1464       C  0.03052636  0.40591486  0.69852075    -0.08900
C1465       C  0.00934516  0.38316934  0.61233391     0.65400
H1466       H  0.06454872  0.41103888  0.61858816     0.10900
C1467       C  0.07567891  0.43159888  0.72747873     0.63800
H1468       H  0.02082728  0.40521726  0.72046424     0.08200
F1469       F  0.93941698  0.41540222  0.62154826    -0.19300
F1470       F  0.97748595  0.44704256  0.64762129    -0.15500
F1471       F  0.93738651  0.42532542  0.67273155    -0.19000
F1472       F  0.98338847  0.34971801  0.72255066    -0.22400
F1473       F  0.98040472  0.33346200  0.67371240    -0.23800
F1474       F  0.94282811  0.31470454  0.70375911    -0.17800
F1475       F  0.05904298  0.42063925  0.75394457    -0.20300
F1476       F  0.08919490  0.45971551  0.72814059    -0.21500
F1477       F  0.09451797  0.42549354  0.72932720    -0.18600
F1478       F  0.02454833  0.38352238  0.58751558    -0.18700
F1479       F  0.99966714  0.39817754  0.60342892    -0.22600
F1480       F  0.98734106  0.35624771  0.61730695    -0.24200
C1481       C  0.86704505  0.43478474  0.53652727    -0.11000
C1482       C  0.86511350  0.42367832  0.50669819     0.11600
C1483       C  0.86384897  0.39954290  0.50401169    -0.02800
C1484       C  0.86256611  0.38608861  0.53188619    -0.05500
C1485       C  0.86242294  0.39607310  0.56194588    -0.16300
C1486       C  0.86539060  0.42124196  0.56443475     0.02600
C1487       C  0.86344733  0.43749800  0.47886447     0.12600
C1488       C  0.86355392  0.38803040  0.47188333     0.63200
H1489       H  0.86078762  0.36711564  0.53035400     0.12600
C1490       C  0.86704302  0.43401910  0.59614699     0.55300
H1491       H  0.86877188  0.45374680  0.53767690     0.08400
C1492       C  0.83871184  0.43383221  0.47068838    -0.05400
C1493       C  0.83897667  0.44930749  0.44568533    -0.06100
C1494       C  0.86314181  0.46849398  0.42921446    -0.15700
C1495       C  0.88766279  0.47121581  0.43650389    -0.01300
C1496       C  0.88739159  0.45578897  0.46167166    -0.08900
C1497       C  0.81230477  0.41416594  0.48880141     0.65400
H1498       H  0.82046001  0.44744982  0.43979111     0.10900
C1499       C  0.91399572  0.49006790  0.41799375     0.63800
H1500       H  0.90608385  0.45839503  0.46868671     0.08200
F1501       F  0.87373420  0.46020011  0.59276024    -0.19300
F1502       F  0.88696592  0.43584976  0.61473282    -0.15500
F1503       F  0.84201580  0.41823977  0.61135887    -0.19000
F1504       F  0.88737782  0.40696390  0.45569191    -0.22400
F1505       F  0.84137305  0.38231498  0.45439390    -0.23800
F1506       F  0.86179809  0.36409582  0.47456831    -0.17800
F1507       F  0.92591599  0.51703598  0.42651902    -0.20300
F1508       F  0.90857453  0.48694967  0.38587823    -0.21500
F1509       F  0.93269457  0.48418116  0.42381252    -0.18600
F1510       F  0.79038462  0.41270163  0.47577699    -0.18700
F1511       F  0.81515706  0.42276946  0.51978715    -0.22600
F1512       F  0.80611241  0.38810572  0.48840280    -0.24200
C1513       C  0.61030093  0.03353377  0.31795232    -0.11000
C1514       C  0.62266345  0.02467521  0.33721005     0.11600
C1515       C  0.64776496  0.04432933  0.35242103    -0.02800
C1516       C  0.65805705  0.07224503  0.35070235    -0.05500
C1517       C  0.64406423  0.08083560  0.33419517    -0.16300
C1518       C  0.62054885  0.06140203  0.31612286     0.02600
C1519       C  0.60784665  0.99462330  0.34219889     0.12600
C1520       C  0.66322279  0.03574935  0.37086550     0.63200
H1521       H  0.67629332  0.08740733  0.36382838     0.12600
C1522       C  0.60678492  0.07000221  0.29427827     0.55300
H1523       H  0.59177511  0.01816030  0.30538732     0.08400
C1524       C  0.58648739  0.98037741  0.36470906    -0.05400
C1525       C  0.57227228  0.95183026  0.36733727    -0.06100
C1526       C  0.57781630  0.93679796  0.34757232    -0.15700
C1527       C  0.59898314  0.95104282  0.32465474    -0.01300
C1528       C  0.61378956  0.97988985  0.32255757    -0.08900
C1529       C  0.57820255  0.99510639  0.38544238     0.65400
H1530       H  0.55617986  0.94084635  0.38480848     0.10900
C1531       C  0.60503295  0.93595671  0.30148973     0.63800
H1532       H  0.62976469  0.99120533  0.30501538     0.08200
F1533       F  0.58565054  0.04801352  0.27720477    -0.19300
F1534       F  0.62583239  0.08928443  0.27300329    -0.15500
F1535       F  0.59588910  0.08107711  0.31138010    -0.19000
F1536       F  0.66913731  0.02144116  0.35127413    -0.22400
F1537       F  0.64752291  0.01915034  0.39593517    -0.23800
F1538       F  0.68770726  0.05816636  0.38277628    -0.17800
F1539       F  0.62501052  0.95362117  0.27984105    -0.20300
F1540       F  0.58149662  0.91689854  0.28487633    -0.21500
F1541       F  0.61421347  0.92276582  0.31759142    -0.18600
F1542       F  0.55663913  0.97718203  0.40535623    -0.18700
F1543       F  0.56995916  0.00791385  0.36677985    -0.22600
F1544       F  0.60006392  0.01453204  0.40393851    -0.24200
C1545       C  0.58197164  0.12585784  0.47866697    -0.11000
C1546       C  0.58126505  0.14801900  0.48664383     0.11600
C1547       C  0.59704041  0.17279151  0.46939284    -0.02800
C1548       C  0.61163560  0.17385423  0.44285392    -0.05500
C1549       C  0.61190516  0.15144436  0.43415849    -0.16300
C1550       C  0.59752291  0.12725307  0.45293021     0.02600
C1551       C  0.56365455  0.14480342  0.51316640     0.12600
C1552       C  0.59922983  0.19822663  0.47980832     0.63200
H1553       H  0.62343434  0.19249097  0.42899437     0.12600
C1554       C  0.59934016  0.10343993  0.44683732     0.55300
H1555       H  0.57016912  0.10742078  0.49287789     0.08400
C1556       C  0.53630807  0.13552330  0.50812724    -0.05400
C1557       C  0.52194923  0.13676328  0.53340927    -0.06100
C1558       C  0.53385520  0.14607810  0.56356168    -0.15700
C1559       C  0.56024369  0.15240169  0.56923894    -0.01300
C1560       C  0.57491109  0.15206014  0.54358769    -0.08900
C1561       C  0.52250114  0.12430942  0.47619030     0.65400
H1562       H  0.50141491  0.13095418  0.52953389     0.10900
C1563       C  0.57278378  0.15893871  0.60206719     0.63800
H1564       H  0.59561871  0.15814609  0.54686594     0.08200
F1565       F  0.58731825  0.08418165  0.47086558    -0.19300
F1566       F  0.62650931  0.11292487  0.44490546    -0.15500
F1567       F  0.58606403  0.09046580  0.41891175    -0.19000
F1568       F  0.61109775  0.20612344  0.50947012    -0.22400
F1569       F  0.57359122  0.19290444  0.48115204    -0.23800
F1570       F  0.61519658  0.22000686  0.45932234    -0.17800
F1571       F  0.55401762  0.13935097  0.62334207    -0.20300
F1572       F  0.58042970  0.18456430  0.61138742    -0.21500
F1573       F  0.59582052  0.15900997  0.60292276    -0.18600
F1574       F  0.49570865  0.11614260  0.47637837    -0.18700
F1575       F  0.52219883  0.10177183  0.46849165    -0.22600
F1576       F  0.53655214  0.14403613  0.45299480    -0.24200
C1577       C  0.74783481  0.20224608  0.48613055    -0.11000
C1578       C  0.76265944  0.23079902  0.48845521     0.11600
C1579       C  0.76346039  0.24588407  0.46224950    -0.02800
C1580       C  0.74788890  0.23156308  0.43512342    -0.05500
C1581       C  0.73141226  0.20268021  0.43328986    -0.16300
C1582       C  0.73175173  0.18770644  0.45931177     0.02600
C1583       C  0.77561130  0.24423630  0.51939227     0.12600
C1584       C  0.78046607  0.27702055  0.46319922     0.63200
H1585       H  0.74793640  0.24298973  0.41531821     0.12600
C1586       C  0.71440686  0.15654591  0.45993839     0.55300
H1587       H  0.74802120  0.19132581  0.50636784     0.08400
C1588       C  0.76054215  0.24594017  0.54377162    -0.05400
C1589       C  0.77448581  0.26156183  0.57095013    -0.06100
C1590       C  0.80279184  0.27490714  0.57501523    -0.15700
C1591       C  0.81746600  0.27124569  0.55158370    -0.01300
C1592       C  0.80347713  0.25600189  0.52407023    -0.08900
C1593       C  0.72985121  0.23157011  0.54083629     0.65400
H1594       H  0.76335715  0.26399386  0.58907591     0.10900
C1595       C  0.84786317  0.28399662  0.55473898     0.63800
H1596       H  0.81434709  0.25372752  0.50543085     0.08200
F1597       F  0.71763306  0.14664292  0.48782556    -0.19300
F1598       F  0.72190697  0.14709113  0.43529864    -0.15500
F1599       F  0.68698817  0.14597831  0.45734236    -0.19000
F1600       F  0.80782666  0.28768715  0.46678373    -0.22400
F1601       F  0.77237446  0.28550309  0.48826965    -0.23800
F1602       F  0.77773436  0.28775260  0.43573718    -0.17800
F1603       F  0.85774817  0.27780450  0.52920059    -0.20300
F1604       F  0.85236670  0.27407787  0.58165011    -0.21500
F1605       F  0.86262516  0.31225261  0.55653506    -0.18600
F1606       F  0.71913792  0.23595433  0.56708458    -0.18700
F1607       F  0.71678333  0.20362014  0.53787285    -0.22600
F1608       F  0.72416351  0.24108876  0.51454515    -0.24200
C1609       C  0.47474944  0.76186292  0.75108787    -0.11000
C1610       C  0.44723785  0.74712427  0.76046793     0.11600
C1611       C  0.43368592  0.71963901  0.77084065    -0.02800
C1612       C  0.44782260  0.70747236  0.76990629    -0.05500
C1613       C  0.47520059  0.72192589  0.75970926    -0.16300
C1614       C  0.48942404  0.75024764  0.75224305     0.02600
C1615       C  0.43264658  0.76043174  0.75833563     0.12600
C1616       C  0.40421924  0.70305390  0.78244751     0.63200
H1617       H  0.43706730  0.68610519  0.77621476     0.12600
C1618       C  0.52012213  0.76935516  0.74687068     0.55300
H1619       H  0.48508926  0.78294439  0.74344771     0.08400
C1620       C  0.43509021  0.77869417  0.78147046    -0.05400
C1621       C  0.41772438  0.78732536  0.77973900    -0.06100
C1622       C  0.39770493  0.77821005  0.75573716    -0.15700
C1623       C  0.39752209  0.76179268  0.73067828    -0.01300
C1624       C  0.41508614  0.75354211  0.73278582    -0.08900
C1625       C  0.45580177  0.78873655  0.80812341     0.65400
H1626       H  0.41978871  0.80092010  0.79777288     0.10900
C1627       C  0.37939890  0.75092022  0.70113930     0.63800
H1628       H  0.41435917  0.74043938  0.71453182     0.08200
F1629       F  0.53079644  0.79396489  0.76236362    -0.19300
F1630       F  0.52539214  0.77453023  0.71489370    -0.15500
F1631       F  0.53359164  0.75874754  0.75851003    -0.19000
F1632       F  0.38694208  0.69874267  0.75792037    -0.22400
F1633       F  0.40168732  0.71702417  0.80649629    -0.23800
F1634       F  0.39575709  0.67769059  0.79408769    -0.17800
F1635       F  0.39606507  0.76076001  0.67466688    -0.20300
F1636       F  0.36138818  0.75776693  0.69799172    -0.21500
F1637       F  0.36406581  0.72257486  0.70095599    -0.18600
F1638       F  0.45444188  0.80568682  0.82893129    -0.18700
F1639       F  0.48198638  0.80343888  0.79572503    -0.22600
F1640       F  0.45108086  0.76666629  0.82503117    -0.24200
C1641       C  0.25115120  0.64012172  0.72574638    -0.11000
C1642       C  0.23996745  0.64595187  0.75071305     0.11600
C1643       C  0.21831122  0.62373214  0.76864531    -0.02800
C1644       C  0.21377980  0.59788918  0.76633574    -0.05500
C1645       C  0.22844514  0.59350381  0.74448501    -0.16300
C1646       C  0.24427713  0.61374101  0.72110684     0.02600
C1647       C  0.25492377  0.67556744  0.75926831     0.12600
C1648       C  0.19914999  0.62606028  0.78919344     0.63200
H1649       H  0.19980601  0.58164374  0.78261311     0.12600
C1650       C  0.25528660  0.60854538  0.69194178     0.55300
H1651       H  0.26637036  0.65661595  0.71048528     0.08400
C1652       C  0.27317196  0.68676849  0.78544056    -0.05400
C1653       C  0.29312312  0.71532460  0.78680215    -0.06100
C1654       C  0.29745287  0.73271591  0.76162540    -0.15700
C1655       C  0.27854641  0.72182615  0.73620764    -0.01300
C1656       C  0.25695806  0.69349248  0.73608985    -0.08900
C1657       C  0.27339161  0.66878652  0.81064530     0.65400
H1658       H  0.30769839  0.72407366  0.80611298     0.10900
C1659       C  0.28231959  0.73946814  0.70819739     0.63800
H1660       H  0.24314500  0.68455308  0.71609393     0.08200
F1661       F  0.28233711  0.61846546  0.69661524    -0.19300
F1662       F  0.25385606  0.62184130  0.66615210    -0.15500
F1663       F  0.24011401  0.58090425  0.68472772    -0.19000
F1664       F  0.17278894  0.60855820  0.77754120    -0.22400
F1665       F  0.20585151  0.65234267  0.78941683    -0.23800
F1666       F  0.19948026  0.61833312  0.81987439    -0.17800
F1667       F  0.30759793  0.75065311  0.69439924    -0.20300
F1668       F  0.28060930  0.76029231  0.71822672    -0.21500
F1669       F  0.26247624  0.72450018  0.68528120    -0.18600
F1670       F  0.29613080  0.68362997  0.83009324    -0.18700
F1671       F  0.27382543  0.64813113  0.79696956    -0.22600
F1672       F  0.25045581  0.65738637  0.82942383    -0.24200
C1673       C  0.33459795  0.59198356  0.77859425    -0.11000
C1674       C  0.34542439  0.58445930  0.75535241     0.11600
C1675       C  0.32732066  0.56295238  0.73435833    -0.02800
C1676       C  0.29912477  0.55204950  0.73501234    -0.05500
C1677       C  0.28815420  0.56131461  0.75659847    -0.16300
C1678       C  0.30652019  0.58071270  0.78037129     0.02600
C1679       C  0.37597963  0.60118739  0.75288699     0.12600
C1680       C  0.33760261  0.55085985  0.71228952     0.63200
H1681       H  0.28571266  0.53594851  0.71864597     0.12600
C1682       C  0.29945140  0.59186159  0.80808770     0.55300
H1683       H  0.34868993  0.60777738  0.79529783     0.08400
C1684       C  0.39072222  0.62542243  0.73437144    -0.05400
C1685       C  0.41953287  0.64204843  0.73525791    -0.06100
C1686       C  0.43417498  0.63637639  0.75540371    -0.15700
C1687       C  0.41953033  0.61242874  0.77447694    -0.01300
C1688       C  0.39057563  0.59517698  0.77277008    -0.08900
C1689       C  0.37609930  0.63462172  0.71513680     0.65400
H1690       H  0.43104202  0.66046646  0.72097487     0.10900
C1691       C  0.43310172  0.60425222  0.79721978     0.63800
H1692       H  0.37918149  0.57713143  0.78769052     0.08200
F1693       F  0.31353664  0.61995069  0.80463053    -0.19300
F1694       F  0.30798220  0.58683495  0.83586373    -0.15500
F1695       F  0.27218403  0.58090973  0.81171861    -0.19000
F1696       F  0.34754451  0.53916922  0.73009177    -0.22400
F1697       F  0.35839511  0.57094119  0.69319517    -0.23800
F1698       F  0.31697976  0.53074969  0.69290207    -0.17800
F1699       F  0.42563659  0.60531042  0.82781005    -0.20300
F1700       F  0.46136187  0.62096756  0.79537877    -0.21500
F1701       F  0.42423751  0.57766946  0.79076562    -0.18600
F1702       F  0.39433560  0.65876706  0.69893360    -0.18700
F1703       F  0.36087310  0.63909673  0.73505123    -0.22600
F1704       F  0.35883023  0.61480717  0.69325001    -0.24200
C1705       C  0.69182187  0.27528132  0.72177247    -0.11000
C1706       C  0.67967609  0.25981602  0.74938700     0.11600
C1707       C  0.69688633  0.25995453  0.77263417    -0.02800
C1708       C  0.72553110  0.27991886  0.77038559    -0.05500
C1709       C  0.73719162  0.29782846  0.74447220    -0.16300
C1710       C  0.72030093  0.29306347  0.71824037     0.02600
C1711       C  0.64963691  0.24661152  0.75315520     0.12600
C1712       C  0.68644383  0.23935669  0.79935348     0.63200
H1713       H  0.73861470  0.28259266  0.78983465     0.12600
C1714       C  0.73157476  0.30811470  0.68713039     0.55300
H1715       H  0.67890095  0.27429272  0.70313483     0.08400
C1716       C  0.63973797  0.25729652  0.77437281    -0.05400
C1717       C  0.61226773  0.24801662  0.77201478    -0.06100
C1718       C  0.59533264  0.23143742  0.74691008    -0.15700
C1719       C  0.60509980  0.22090187  0.72542237    -0.01300
C1720       C  0.63177435  0.22783554  0.72975863    -0.08900
C1721       C  0.65838521  0.28037678  0.79747341     0.65400
H1722       H  0.60440721  0.25581681  0.78823620     0.10900
C1723       C  0.58829914  0.20395839  0.69698538     0.63800
H1724       H  0.63981043  0.22045111  0.71319332     0.08200
F1725       F  0.72894995  0.32945086  0.68570254    -0.19300
F1726       F  0.71714704  0.29028583  0.66229359    -0.15500
F1727       F  0.75876502  0.31832999  0.68332561    -0.19000
F1728       F  0.69688540  0.22424585  0.79562323    -0.22400
F1729       F  0.65819161  0.22132584  0.79991374    -0.23800
F1730       F  0.69543702  0.25287094  0.82808267    -0.17800
F1731       F  0.58056636  0.21788438  0.67961232    -0.20300
F1732       F  0.56520847  0.17920306  0.70703945    -0.21500
F1733       F  0.60292027  0.19854588  0.67715716    -0.18600
F1734       F  0.64572762  0.29147681  0.81038926    -0.18700
F1735       F  0.68184275  0.30140580  0.78233407    -0.22600
F1736       F  0.66542006  0.27056275  0.82201014    -0.24200
C1737       C  0.55858008  0.32366746  0.75311637    -0.11000
C1738       C  0.58107843  0.34036043  0.73309190     0.11600
C1739       C  0.58776608  0.32794361  0.71031021    -0.02800
C1740       C  0.57327698  0.29925423  0.71046409    -0.05500
C1741       C  0.55368051  0.28271406  0.73394448    -0.16300
C1742       C  0.54352338  0.29480445  0.75242967     0.02600
C1743       C  0.59983485  0.37032155  0.73952479     0.12600
C1744       C  0.61174209  0.34501476  0.68779925     0.63200
H1745       H  0.57917637  0.28973046  0.69406739     0.12600
C1746       C  0.51574465  0.27872973  0.76845910     0.55300
H1747       H  0.55264942  0.33328142  0.76938339     0.08400
C1748       C  0.59697537  0.39000332  0.72582332    -0.05400
C1749       C  0.61800959  0.41814917  0.73066819    -0.06100
C1750       C  0.64047338  0.42685880  0.75051681    -0.15700
C1751       C  0.64170410  0.40675369  0.76657493    -0.01300
C1752       C  0.62167528  0.37896450  0.76002590    -0.08900
C1753       C  0.57135725  0.38129526  0.70758022     0.65400
H1754       H  0.61672497  0.43362610  0.71965527     0.10900
C1755       C  0.66289635  0.41243928  0.79109710     0.63800
H1756       H  0.62305066  0.36356658  0.77123192     0.08200
F1757       F  0.50246609  0.29073389  0.76166661    -0.19300
F1758       F  0.51896773  0.27914197  0.80088490    -0.15500
F1759       F  0.49899700  0.25195819  0.75777602    -0.19000
F1760       F  0.63586798  0.35986057  0.70480360    -0.22400
F1761       F  0.60895204  0.36294492  0.67101460    -0.23800
F1762       F  0.61360406  0.32885109  0.66621786    -0.17800
F1763       F  0.64966506  0.39968527  0.81913177    -0.20300
F1764       F  0.68203320  0.43978075  0.79751449    -0.21500
F1765       F  0.67653308  0.40160481  0.78080186    -0.18600
F1766       F  0.57229418  0.40368377  0.69723211    -0.18700
F1767       F  0.54873717  0.36572605  0.72697593    -0.22600
F1768       F  0.56814279  0.36582773  0.68151154    -0.24200
C1769       C  0.77021295  0.47672523  0.75790342    -0.11000
C1770       C  0.75729763  0.44999512  0.74608174     0.11600
C1771       C  0.73044764  0.43610128  0.73369231    -0.02800
C1772       C  0.71677654  0.44868171  0.73558669    -0.05500
C1773       C  0.72906052  0.47496543  0.74875593    -0.16300
C1774       C  0.75707260  0.49000742  0.75796021     0.02600
C1775       C  0.77059303  0.43550736  0.75009735     0.12600
C1776       C  0.71574367  0.40749239  0.71962879     0.63200
H1777       H  0.69557112  0.43702089  0.72838948     0.12600
C1778       C  0.77391669  0.52007284  0.76718501     0.55300
H1779       H  0.79075945  0.48728141  0.76735394     0.08400
C1780       C  0.79051089  0.43847450  0.72926220    -0.05400
C1781       C  0.79809690  0.42023901  0.73197255    -0.06100
C1782       C  0.78608679  0.39876930  0.75463048    -0.15700
C1783       C  0.76877624  0.39867002  0.77826071    -0.01300
C1784       C  0.76160856  0.41707736  0.77522493    -0.08900
C1785       C  0.80325586  0.46027096  0.70361748     0.65400
H1786       H  0.81264200  0.42266561  0.71611706     0.10900
C1787       C  0.75609017  0.38001847  0.80720972     0.63800
H1788       H  0.74766732  0.41620669  0.79200243     0.08200
F1789       F  0.80075148  0.53324231  0.75723851    -0.19300
F1790       F  0.77388985  0.52244536  0.79969076    -0.15500
F1791       F  0.76394590  0.53341235  0.75323394    -0.19000
F1792       F  0.71010794  0.38880181  0.74301414    -0.22400
F1793       F  0.73192027  0.40711961  0.69674922    -0.23800
F1794       F  0.69124725  0.39912031  0.70555869    -0.17800
F1795       F  0.76554977  0.39621969  0.83409436    -0.20300
F1796       F  0.76160378  0.36097726  0.81069494    -0.21500
F1797       F  0.72789830  0.36583121  0.80598895    -0.18600
F1798       F  0.82411440  0.46147325  0.68786930    -0.18700
F1799       F  0.81430446  0.48577977  0.71676962    -0.22600
F1800       F  0.78352943  0.45462826  0.68174966    -0.24200
C1801       C  0.31870205  0.75852123  0.26710383    -0.11000
C1802       C  0.33535740  0.75847620  0.24378337     0.11600
C1803       C  0.32280686  0.73910689  0.21881206    -0.02800
C1804       C  0.29422400  0.71952602  0.21921082    -0.05500
C1805       C  0.27832355  0.71662763  0.24538262    -0.16300
C1806       C  0.29029753  0.73742597  0.26877544     0.02600
C1807       C  0.36491397  0.77237312  0.25127084     0.12600
C1808       C  0.33964596  0.73650550  0.19427695     0.63200
H1809       H  0.28456056  0.70362805  0.20130368     0.12600
C1810       C  0.27370475  0.73626458  0.29651355     0.55300
H1811       H  0.32867109  0.77344378  0.28600208     0.08400
C1812       C  0.38724175  0.79509507  0.23457336    -0.05400
C1813       C  0.41343023  0.80058365  0.23752143    -0.06100
C1814       C  0.41782320  0.78497492  0.25776011    -0.15700
C1815       C  0.39663320  0.76629450  0.27900030    -0.01300
C1816       C  0.37035800  0.75955801  0.27446872    -0.08900
C1817       C  0.38467141  0.81403148  0.21381101     0.65400
H1818       H  0.42999837  0.81589297  0.22243903     0.10900
C1819       C  0.40027787  0.75185004  0.30575076     0.63800
H1820       H  0.35355433  0.74314263  0.28841961     0.08200
F1821       F  0.28935229  0.75843268  0.31663068    -0.19300
F1822       F  0.26339638  0.71256366  0.31373456    -0.15500
F1823       F  0.25230314  0.73662885  0.28553306    -0.19000
F1824       F  0.35510457  0.72928174  0.20897466    -0.22400
F1825       F  0.35684312  0.76103906  0.17861056    -0.23800
F1826       F  0.32330101  0.71671184  0.17179769    -0.17800
F1827       F  0.38870184  0.75355336  0.33307599    -0.20300
F1828       F  0.42750543  0.76346513  0.31216851    -0.21500
F1829       F  0.38714993  0.72446574  0.29816864    -0.18600
F1830       F  0.39403014  0.81480508  0.18366571    -0.18700
F1831       F  0.40067327  0.84022601  0.22635613    -0.22600
F1832       F  0.35804289  0.80611364  0.21174079    -0.24200
C1833       C  0.75959282  0.36967909  0.22858570    -0.11000
C1834       C  0.77057117  0.36310062  0.25293812     0.11600
C1835       C  0.79243368  0.38443669  0.27120242    -0.02800
C1836       C  0.79788014  0.41072093  0.26985538    -0.05500
C1837       C  0.78390410  0.41625663  0.24831242    -0.16300
C1838       C  0.76730167  0.39645543  0.22473397     0.02600
C1839       C  0.75606395  0.33356840  0.26066974     0.12600
C1840       C  0.81064556  0.37963457  0.29015124     0.63200
H1841       H  0.81200836  0.42652645  0.28642621     0.12600
C1842       C  0.75668092  0.40245761  0.19583006     0.55300
H1843       H  0.74420930  0.35358373  0.21306895     0.08400
C1844       C  0.73556353  0.32113506  0.28444022    -0.05400
C1845       C  0.71769857  0.29237000  0.28559777    -0.06100
C1846       C  0.71700169  0.27593206  0.26132452    -0.15700
C1847       C  0.73861077  0.28816760  0.23893736    -0.01300
C1848       C  0.75826072  0.31693578  0.23950974    -0.08900
C1849       C  0.73033563  0.33792317  0.30616412     0.65400
H1850       H  0.70140991  0.28256977  0.30297672     0.10900
C1851       C  0.73992375  0.27142421  0.21322249     0.63800
H1852       H  0.77397640  0.32695194  0.22148723     0.08200
F1853       F  0.72877884  0.38954295  0.19864721    -0.19300
F1854       F  0.76149030  0.39253467  0.16914519    -0.15500
F1855       F  0.76957489  0.43025034  0.19143220    -0.19000
F1856       F  0.82344643  0.37259464  0.26955588    -0.22400
F1857       F  0.79567478  0.35858939  0.31165132    -0.23800
F1858       F  0.83062745  0.40296460  0.30646352    -0.17800
F1859       F  0.71701032  0.25948547  0.19415547    -0.20300
F1860       F  0.74124274  0.25131018  0.22673115    -0.21500
F1861       F  0.76283763  0.28739585  0.19428967    -0.18600
F1862       F  0.70775689  0.32138512  0.32542042    -0.18700
F1863       F  0.72548393  0.35398235  0.28838338    -0.22600
F1864       F  0.75260978  0.35470686  0.32551789    -0.24200
C1865       C  0.26266260  0.60115968  0.27693762    -0.11000
C1866       C  0.25504490  0.58326189  0.25147914     0.11600
C1867       C  0.23523193  0.57955645  0.22995824    -0.02800
C1868       C  0.22593971  0.59630502  0.23273815    -0.05500
C1869       C  0.23537073  0.61651270  0.25666748    -0.16300
C1870       C  0.25278965  0.61732482  0.28083584     0.02600
C1871       C  0.26841158  0.56879002  0.24833674     0.12600
C1872       C  0.22408344  0.55799157  0.20404013     0.63200
H1873       H  0.21127961  0.59335840  0.21565744     0.12600
C1874       C  0.26062567  0.63382480  0.31163601     0.55300
H1875       H  0.27677256  0.60230632  0.29390483     0.08400
C1876       C  0.29472016  0.58174639  0.23464850    -0.05400
C1877       C  0.30729502  0.56798134  0.23488110    -0.06100
C1878       C  0.29444265  0.54163939  0.24807394    -0.15700
C1879       C  0.26706733  0.52784039  0.25931955    -0.01300
C1880       C  0.25510752  0.54218537  0.26054740    -0.08900
C1881       C  0.30979474  0.61040591  0.22069739     0.65400
H1882       H  0.32791967  0.57842392  0.22593486     0.10900
C1883       C  0.24928862  0.49795469  0.26944618     0.63800
H1884       H  0.23488963  0.53232738  0.27077882     0.08200
F1885       F  0.27805394  0.63130624  0.33008768    -0.19300
F1886       F  0.23754955  0.62414433  0.32961510    -0.15500
F1887       F  0.27392989  0.66146090  0.30618626    -0.19000
F1888       F  0.21120733  0.53227422  0.21746532    -0.22400
F1889       F  0.24518468  0.56295750  0.18495246    -0.23800
F1890       F  0.20520945  0.55777042  0.18508670    -0.17800
F1891       F  0.24738084  0.49646331  0.30206933    -0.20300
F1892       F  0.25922422  0.48357018  0.25885306    -0.21500
F1893       F  0.22323415  0.48512875  0.25699981    -0.18600
F1894       F  0.33428735  0.61857845  0.20671956    -0.18700
F1895       F  0.31552319  0.62903053  0.24422420    -0.22600
F1896       F  0.29380540  0.61113070  0.19785473    -0.24200
C1897       C  0.41791589  0.62706344  0.22219303    -0.11000
C1898       C  0.41295315  0.64223607  0.24240753     0.11600
C1899       C  0.39061649  0.62846109  0.26375793    -0.02800
C1900       C  0.37447947  0.59971426  0.26489348    -0.05500
C1901       C  0.37930521  0.58445915  0.24467370    -0.16300
C1902       C  0.40129153  0.59814975  0.22295313     0.02600
C1903       C  0.42965692  0.67243380  0.23879922     0.12600
C1904       C  0.38328571  0.64398125  0.28450263     0.63200
H1905       H  0.35741253  0.58871946  0.28120929     0.12600
C1906       C  0.40730854  0.58226267  0.20120197     0.55300
H1907       H  0.43480261  0.63810596  0.20565716     0.08400
C1908       C  0.45322891  0.69051891  0.25709898    -0.05400
C1909       C  0.46460398  0.71871325  0.25645332    -0.06100
C1910       C  0.45332630  0.72930846  0.23779699    -0.15700
C1911       C  0.43255638  0.71116069  0.21516680    -0.01300
C1912       C  0.42060911  0.68299119  0.21718674    -0.08900
C1913       C  0.46641447  0.68003621  0.27677870     0.65400
H1914       H  0.48245305  0.73244824  0.27070030     0.10900
C1915       C  0.42060036  0.71885533  0.18913077     0.63800
H1916       H  0.40334653  0.66877558  0.20209582     0.08200
F1917       F  0.42907947  0.59944345  0.18117243    -0.19300
F1918       F  0.38460196  0.56439810  0.18281623    -0.15500
F1919       F  0.41373087  0.56747771  0.21905685    -0.19000
F1920       F  0.37662038  0.65809674  0.26572523    -0.22400
F1921       F  0.40515593  0.66245202  0.30361552    -0.23800
F1922       F  0.36109226  0.62649761  0.30387498    -0.17800
F1923       F  0.42148134  0.70792321  0.16073354    -0.20300
F1924       F  0.43409272  0.74657341  0.18441460    -0.21500
F1925       F  0.39349507  0.70759992  0.19610437    -0.18600
F1926       F  0.48875233  0.70090940  0.29365820    -0.18700
F1927       F  0.47527907  0.66839605  0.25699206    -0.22600
F1928       F  0.44782965  0.66046382  0.29809907    -0.24200
C1929       C  0.60086090  0.25441864  0.23043216    -0.11000
C1930       C  0.57915640  0.24036063  0.25168723     0.11600
C1931       C  0.57365471  0.21685740  0.26714223    -0.02800
C1932       C  0.59244750  0.21021306  0.26359529    -0.05500
C1933       C  0.61661577  0.22650317  0.24531207    -0.16300
C1934       C  0.61938037  0.24773033  0.22604999     0.02600
C1935       C  0.56364732  0.25200955  0.25775080     0.12600
C1936       C  0.54811345  0.19907047  0.28724671     0.63200
H1937       H  0.58809020  0.19218257  0.27537056     0.12600
C1938       C  0.64184735  0.26576360  0.20189871     0.55300
H1939       H  0.60392645  0.27171917  0.21773645     0.08400
C1940       C  0.57401995  0.27460621  0.27831645    -0.05400
C1941       C  0.56075535  0.28747699  0.27933272    -0.06100
C1942       C  0.53931226  0.28039686  0.25830935    -0.15700
C1943       C  0.52632568  0.25504350  0.24180039    -0.01300
C1944       C  0.53967140  0.24209909  0.24049540    -0.08900
C1945       C  0.60000390  0.28627216  0.29759388     0.65400
H1946       H  0.56885673  0.30513343  0.29455465     0.10900
C1947       C  0.49745355  0.23919840  0.22873105     0.63800
H1948       H  0.53126528  0.22400726  0.22589806     0.08200
F1949       F  0.65895995  0.29213130  0.21382910    -0.19300
F1950       F  0.63003126  0.26678111  0.17436745    -0.15500
F1951       F  0.65749295  0.25682719  0.19353143    -0.19000
F1952       F  0.52512806  0.18798464  0.26844797    -0.22400
F1953       F  0.54747223  0.21458848  0.31087295    -0.23800
F1954       F  0.54703005  0.17768229  0.30137287    -0.17800
F1955       F  0.49827654  0.24214791  0.19623940    -0.20300
F1956       F  0.48251688  0.24751814  0.24226694    -0.21500
F1957       F  0.48370426  0.21157148  0.23555141    -0.18600
F1958       F  0.60587813  0.30780025  0.31673609    -0.18700
F1959       F  0.62208878  0.29607920  0.27762957    -0.22600
F1960       F  0.59713780  0.26612794  0.31675697    -0.24200
C1961       C  0.63094899  0.40719975  0.22535007    -0.11000
C1962       C  0.64151468  0.41972058  0.25473378     0.11600
C1963       C  0.62338818  0.41635405  0.27877865    -0.02800
C1964       C  0.59493986  0.39655910  0.27438835    -0.05500
C1965       C  0.58470467  0.38070980  0.24666654    -0.16300
C1966       C  0.60270713  0.38794549  0.22070437     0.02600
C1967       C  0.67070177  0.43134762  0.26110618     0.12600
C1968       C  0.63425973  0.43263706  0.30931062     0.63200
H1969       H  0.58094121  0.39124296  0.29383357     0.12600
C1970       C  0.59334250  0.37283519  0.18941670     0.55300
H1971       H  0.64504613  0.41048471  0.20682883     0.08400
C1972       C  0.67809699  0.41440926  0.27246728    -0.05400
C1973       C  0.70600047  0.42577031  0.27619081    -0.06100
C1974       C  0.72706227  0.45225613  0.26497307    -0.15700
C1975       C  0.71940497  0.46999495  0.25667007    -0.01300
C1976       C  0.69127408  0.45882397  0.25381557    -0.08900
C1977       C  0.65667640  0.38387411  0.27869130     0.65400
H1978       H  0.71133999  0.41329406  0.28717067     0.10900
C1979       C  0.73943607  0.50073961  0.25173344     0.63800
H1980       H  0.68523916  0.47169587  0.24578352     0.08200
F1981       F  0.59796996  0.35284871  0.18921247    -0.19300
F1982       F  0.60789808  0.39092602  0.16482722    -0.15500
F1983       F  0.56586630  0.36076151  0.18413108    -0.19000
F1984       F  0.65037091  0.46036138  0.30241006    -0.22400
F1985       F  0.64992384  0.42640576  0.32546460    -0.23800
F1986       F  0.61323632  0.42717601  0.32901072    -0.17800
F1987       F  0.74221117  0.50652405  0.21973739    -0.20300
F1988       F  0.76484130  0.51146277  0.26476236    -0.21500
F1989       F  0.72950622  0.51396753  0.26615859    -0.18600
F1990       F  0.66836630  0.37115424  0.28943302    -0.18700
F1991       F  0.64280581  0.37091912  0.25101859    -0.22600
F1992       F  0.63805669  0.37999192  0.30115291    -0.24200
loop_ 
_geom_bond_atom_site_label_1 
_geom_bond_atom_site_label_2 
_geom_bond_distance 
_geom_bond_site_symmetry_2 
_ccdc_geom_bond_type 
C1            C2   1.526       .  S
C1            C7   1.539       .  S
C1            C5   1.543       .  S
C1         C1942   1.541       .  S
C2            H9   1.087       .  S
C2            C3   1.363       .  D
C3            C4   1.551       .  S
C3          C201   1.481       .  S
C4            C8   1.543       .  S
C4            C6   1.550       .  S
C4           H10   1.110       .  S
C5           H11   1.079       .  S
C5            C6   1.372       .  D
C6          C369   1.483       .  S
C7           H12   1.087       .  S
C7            C8   1.357       .  D
C8         C1965   1.488       .  S
C13          C14   1.537       .  S
C13          C19   1.535       .  S
C13          C17   1.538       .  S
C13         C253   1.516       .  S
C14          H21   1.087       .  S
C14          C15   1.362       .  D
C15          C16   1.543       .  S
C15        C1901   1.483       .  S
C16          C20   1.550       .  S
C16          C18   1.550       .  S
C16          H22   1.110       .  S
C17          H23   1.085       .  S
C17          C18   1.373       .  D
C18        C1878   1.505       .  S
C19          H24   1.086       .  S
C19          C20   1.369       .  D
C20         C432   1.490       .  S
C25          C26   1.531       .  S
C25          C31   1.543       .  S
C25          C29   1.550       .  S
C25        C1974   1.556       .  S
C26          H33   1.086       .  S
C26          C27   1.368       .  D
C27          C28   1.549       .  S
C27         C160   1.486       .  S
C28          C32   1.538       .  S
C28          C30   1.542       .  S
C28          H34   1.111       .  S
C29          H35   1.083       .  S
C29          C30   1.375       .  D
C30         C328   1.484       .  S
C31          H36   1.084       .  S
C31          C32   1.360       .  D
C32        C1837   1.490       .  S
C37          C38   1.527       .  S
C37          C43   1.525       .  S
C37          C41   1.548       .  S
C37        C1933   1.545       .  S
C38          H45   1.087       .  S
C38          C39   1.367       .  D
C39          C40   1.552       .  S
C39         C302   1.486       .  S
C40          C44   1.550       .  S
C40          C42   1.545       .  S
C40          H46   1.107       .  S
C41          H47   1.082       .  S
C41          C42   1.374       .  D
C42         C136   1.485       .  S
C43          H48   1.086       .  S
C43          C44   1.362       .  D
C44        C1846   1.497       .  S
C49          C50   1.534       .  S
C49          C55   1.527       .  S
C49          C53   1.555       .  S
C49        C1869   1.565       .  S
C50          H57   1.082       .  S
C50          C51   1.370       .  D
C51          C52   1.553       .  S
C51         C225   1.496       .  S
C52          C56   1.547       .  S
C52          C54   1.547       .  S
C52          H58   1.108       .  S
C53          H59   1.080       .  S
C53          C54   1.375       .  D
C54         C380   1.492       .  S
C55          H60   1.088       .  S
C55          C56   1.364       .  D
C56        C1805   1.496       .  S
C61          C62   1.522       .  S
C61          C67   1.529       .  S
C61          C65   1.556       .  S
C61        C1910   1.540       .  S
C62          H69   1.087       .  S
C62          C63   1.362       .  D
C63          C64   1.552       .  S
C63         C406   1.476       .  S
C64          C68   1.544       .  S
C64          C66   1.546       .  S
C64          H70   1.110       .  S
C65          H71   1.083       .  S
C65          C66   1.375       .  D
C66         C212   1.486       .  S
C67          H72   1.085       .  S
C67          C68   1.359       .  D
C68        C1814   1.491       .  S
C73          C74   1.541       .  S
C73          C79   1.532       .  S
C73          C77   1.545       .  S
C73         C343   1.522       .  S
C74          H81   1.086       .  S
C74          C75   1.361       .  D
C75          C76   1.542       .  S
C75        C1750   1.489       .  S
C76          C80   1.545       .  S
C76          C78   1.548       .  S
C76          H82   1.110       .  S
C77          H83   1.081       .  S
C77          C78   1.380       .  D
C78        C1773   1.512       .  S
C79          H84   1.086       .  S
C79          C80   1.366       .  D
C80         C173   1.481       .  S
C85          C86   1.526       .  S
C85          C91   1.542       .  S
C85          C89   1.543       .  S
C85        C1741   1.548       .  S
C86          H93   1.087       .  S
C86          C87   1.365       .  D
C87          C88   1.555       .  S
C87         C186   1.483       .  S
C88          C92   1.543       .  S
C88          C90   1.550       .  S
C88          H94   1.109       .  S
C89          H95   1.080       .  S
C89          C90   1.370       .  D
C90         C354   1.487       .  S
C91          H96   1.087       .  S
C91          C92   1.364       .  D
C92        C1718   1.497       .  S
C97          C98   1.532       .  S
C97         C103   1.533       .  S
C97         C101   1.562       .  S
C97        C1677   1.556       .  S
C98         H105   1.087       .  S
C98          C99   1.365       .  D
C99         C100   1.549       .  S
C99         C445   1.483       .  S
C100        C104   1.538       .  S
C100        C102   1.543       .  S
C100        H106   1.111       .  S
C101        H107   1.081       .  S
C101        C102   1.379       .  D
C102        C277   1.490       .  S
C103        H108   1.086       .  S
C103        C104   1.362       .  D
C104       C1645   1.492       .  S
C109        C110   1.541       .  S
C109        C115   1.533       .  S
C109        C113   1.541       .  S
C109        C266   1.523       .  S
C110        H117   1.086       .  S
C110        C111   1.362       .  D
C111        C112   1.546       .  S
C111       C1686   1.493       .  S
C112        C116   1.553       .  S
C112        C114   1.549       .  S
C112        H118   1.110       .  S
C113        H119   1.085       .  S
C113        C114   1.376       .  D
C114       C1613   1.505       .  S
C115        H120   1.086       .  S
C115        C116   1.369       .  D
C116        C419   1.492       .  S
C121        C122   1.530       .  S
C121        C127   1.527       .  S
C121        C125   1.557       .  S
C121       C1782   1.555       .  S
C122        H129   1.086       .  S
C122        C123   1.369       .  D
C123        C124   1.551       .  S
C123        C317   1.487       .  S
C124        C128   1.548       .  S
C124        C126   1.545       .  S
C124        H130   1.111       .  S
C125        H131   1.066       .  S
C125        C126   1.379       .  D
C126        C147   1.492       .  S
C127        H132   1.086       .  S
C127        C128   1.360       .  D
C128       C1709   1.489       .  S
O133        C136   1.262       .  A
O133       Cd138   2.447       .  S
C134        O143   1.263       .  A
C134        O139   1.264       .  A
C134       C1549   1.480       .  S
O135        C141   1.270       .  A
O135       Cd138   2.516       .  S
C136        O144   1.268       .  A
C137        O142   1.267       .  A
C137        O140   1.264       .  A
C137       C1581   1.505       .  S
Cd138       O145   2.444       .  S
Cd138       O144   2.537       .  S
Cd138       O143   2.453       .  S
Cd138       O139   2.450       .  S
Cd138       O142   2.498       .  S
Cd138       O140   2.496       .  S
C141        O145   1.263       .  A
C141       C1517   1.484       .  S
O146        C149   1.263       .  A
O146       Cd151   2.457       .  S
C147        O156   1.270       .  A
C147        O152   1.263       .  A
O148        C154   1.263       .  A
O148       Cd151   2.489       .  S
C149        O157   1.263       .  A
C149       C1485   1.480       .  S
C150        O155   1.269       .  A
C150        O153   1.261       .  A
C150       C1453   1.500       .  S
Cd151       O158   2.485       .  S
Cd151       O157   2.465       .  S
Cd151       O156   2.549       .  S
Cd151       O152   2.456       .  S
Cd151       O155   2.513       .  S
Cd151       O153   2.437       .  S
C154        O158   1.266       .  A
C154       C1590   1.497       .  S
O159        C162   1.267       .  A
O159       Cd164   2.470       .  S
C160        O169   1.264       .  A
C160        O165   1.264       .  A
O161        C167   1.268       .  A
O161       Cd164   2.512       .  S
C162        O170   1.260       .  A
C162       C1494   1.477       .  S
C163        O168   1.268       .  A
C163        O166   1.262       .  A
C163       C1389   1.476       .  S
Cd164       O171   2.463       .  S
Cd164       O170   2.444       .  S
Cd164       O169   2.475       .  S
Cd164       O165   2.529       .  S
Cd164       O168   2.504       .  S
Cd164       O166   2.438       .  S
C167        O171   1.263       .  A
C167       C1421   1.487       .  S
O172        C175   1.266       .  A
O172       Cd177   2.478       .  S
C173        O182   1.267       .  A
C173        O178   1.264       .  A
O174        C180   1.269       .  A
O174       Cd177   2.531       .  S
C175        O183   1.264       .  A
C175       C1357   1.483       .  S
C176        O181   1.272       .  A
C176        O179   1.264       .  A
C176       C1325   1.503       .  S
Cd177       O184   2.460       .  S
Cd177       O183   2.427       .  S
Cd177       O182   2.487       .  S
Cd177       O178   2.490       .  S
Cd177       O181   2.514       .  S
Cd177       O179   2.459       .  S
C180        O184   1.261       .  A
C180       C1430   1.499       .  S
O185        C188   1.265       .  A
O185       Cd190   2.474       .  S
C186        O195   1.266       .  A
C186        O191   1.264       .  A
O187        C193   1.270       .  A
O187       Cd190   2.514       .  S
C188        O196   1.262       .  A
C188       C1558   1.484       .  S
C189        O194   1.267       .  A
C189        O192   1.264       .  A
C189       C1270   1.493       .  S
Cd190       O197   2.483       .  S
Cd190       O196   2.449       .  S
Cd190       O195   2.466       .  S
Cd190       O191   2.520       .  S
Cd190       O194   2.514       .  S
Cd190       O192   2.479       .  S
C193        O197   1.265       .  A
C193       C1293   1.494       .  S
O198        C201   1.262       .  A
O198       Cd203   2.523       .  S
C199        O208   1.258       .  A
C199        O204   1.267       .  A
C199       C1366   1.487       .  S
O200        C206   1.271       .  A
O200       Cd203   2.512       .  S
C201        O209   1.266       .  A
C202        O207   1.270       .  A
C202        O205   1.266       .  A
C202       C1302   1.501       .  S
Cd203       O210   2.453       .  S
Cd203       O209   2.457       .  S
Cd203       O208   2.406       .  S
Cd203       O204   2.478       .  S
Cd203       O207   2.530       .  S
Cd203       O205   2.490       .  S
C206        O210   1.261       .  A
C206       C1229   1.494       .  S
O211        C214   1.268       .  A
O211       Cd216   2.501       .  S
C212        O221   1.265       .  A
C212        O217   1.263       .  A
O213        C219   1.268       .  A
O213       Cd216   2.533       .  S
C214        O222   1.261       .  A
C214       C1165   1.482       .  S
C215        O220   1.268       .  A
C215        O218   1.264       .  A
C215       C1197   1.483       .  S
Cd216       O223   2.428       .  S
Cd216       O222   2.434       .  S
Cd216       O221   2.502       .  S
Cd216       O217   2.511       .  S
Cd216       O220   2.511       .  S
Cd216       O218   2.463       .  S
C219        O223   1.262       .  A
C219       C1526   1.493       .  S
O224        C227   1.268       .  A
O224       Cd229   2.483       .  S
C225        O234   1.268       .  A
C225        O230   1.265       .  A
O226        C232   1.269       .  A
O226       Cd229   2.515       .  S
C227        O235   1.262       .  A
C227       C1101   1.487       .  S
C228        O233   1.266       .  A
C228        O231   1.264       .  A
C228       C1142   1.503       .  S
Cd229       O236   2.466       .  S
Cd229       O235   2.442       .  S
Cd229       O234   2.566       .  S
Cd229       O230   2.467       .  S
Cd229       O233   2.521       .  S
Cd229       O231   2.469       .  S
C232        O236   1.263       .  A
C232       C1398   1.500       .  S
O237        C240   1.265       .  A
O237       Cd242   2.493       .  S
C238        C291   1.487       .  S
C238        O247   1.269       .  A
C238        O243   1.265       .  A
O239        C245   1.270       .  A
O239       Cd242   2.512       .  S
C240        O248   1.262       .  A
C240       C1174   1.481       .  S
C241        O246   1.264       .  A
C241        O244   1.264       .  A
C241       C1133   1.499       .  S
Cd242       O249   2.455       .  S
Cd242       O248   2.460       .  S
Cd242       O247   2.540       .  S
Cd242       O243   2.436       .  S
Cd242       O246   2.468       .  S
Cd242       O244   2.494       .  S
C245        O249   1.263       .  A
C245       C1261   1.503       .  S
O250        C253   1.265       .  A
O250       Cd255   2.459       .  S
C251        O260   1.266       .  A
C251        O256   1.266       .  A
C251       C1046   1.486       .  S
O252        C258   1.268       .  A
O252       Cd255   2.526       .  S
C253        O261   1.267       .  A
C254        O259   1.268       .  A
C254        O257   1.264       .  A
C254       C1238   1.493       .  S
Cd255       O262   2.443       .  S
Cd255       O261   2.520       .  S
Cd255       O260   2.463       .  S
Cd255       O256   2.458       .  S
Cd255       O259   2.524       .  S
Cd255       O257   2.445       .  S
C258        O262   1.262       .  A
C258       C1078   1.493       .  S
O263        C266   1.263       .  A
O263       Cd268   2.447       .  S
C264        O273   1.266       .  A
C264        O269   1.264       .  A
C264       C1037   1.491       .  S
O265        C271   1.268       .  A
O265       Cd268   2.530       .  S
C266        O274   1.269       .  A
C267        O272   1.269       .  A
C267        O270   1.262       .  A
C267       C1334   1.503       .  S
Cd268       O275   2.460       .  S
Cd268       O274   2.555       .  S
Cd268       O273   2.448       .  S
Cd268       O269   2.451       .  S
Cd268       O272   2.549       .  S
Cd268       O270   2.477       .  S
C271        O275   1.263       .  A
C271       C1206   1.506       .  S
O276        C279   1.268       .  A
O276       Cd281   2.495       .  S
C277        O286   1.265       .  A
C277        O282   1.265       .  A
O278        C284   1.266       .  A
O278       Cd281   2.506       .  S
C279        O287   1.260       .  A
C279       C1110   1.494       .  S
C280        O285   1.269       .  A
C280        O283   1.264       .  A
C280       C1069   1.490       .  S
Cd281       O288   2.483       .  S
Cd281       O287   2.464       .  S
Cd281       O286   2.519       .  S
Cd281       O282   2.500       .  S
Cd281       O285   2.510       .  S
Cd281       O283   2.457       .  S
C284        O288   1.262       .  A
C284       C1462   1.494       .  S
C289        C290   1.531       .  S
C289        C295   1.525       .  S
C289        C293   1.555       .  S
C289       C1622   1.555       .  S
C290        H297   1.087       .  S
C290        C291   1.368       .  D
C291        C292   1.551       .  S
C292        C296   1.551       .  S
C292        C294   1.548       .  S
C292        H298   1.109       .  S
C293        H299   1.080       .  S
C293        C294   1.378       .  D
C294        C393   1.493       .  S
C295        H300   1.088       .  S
C295        C296   1.360       .  D
C296       C1654   1.496       .  S
O301        C304   1.263       .  A
O301       Cd306   2.446       .  S
C302        O311   1.268       .  A
C302        O307   1.263       .  A
O303        C309   1.269       .  A
O303       Cd306   2.516       .  S
C304        O312   1.266       .  A
C304        C973   1.481       .  S
C305        O310   1.263       .  A
C305        O308   1.268       .  A
C305       C1005   1.495       .  S
Cd306       O313   2.423       .  S
Cd306       O312   2.492       .  S
Cd306       O311   2.551       .  S
Cd306       O307   2.429       .  S
Cd306       O310   2.494       .  S
Cd306       O308   2.480       .  S
C309        O313   1.261       .  A
C309        C941   1.494       .  S
O314        C317   1.263       .  A
O314       Cd319   2.432       .  S
C315        O324   1.267       .  A
C315        O320   1.262       .  A
C315        C909   1.496       .  S
O316        C322   1.263       .  A
O316       Cd319   2.434       .  S
C317        O325   1.268       .  A
C318        O323   1.269       .  A
C318        O321   1.262       .  A
C318        C877   1.493       .  S
Cd319       O326   2.493       .  S
Cd319       O325   2.550       .  S
Cd319       O324   2.482       .  S
Cd319       O320   2.459       .  S
Cd319       O323   2.520       .  S
Cd319       O321   2.427       .  S
C322        O326   1.267       .  A
C322       C1014   1.495       .  S
O327        C330   1.267       .  A
O327       Cd332   2.510       .  S
C328        O337   1.265       .  A
C328        O333   1.265       .  A
O329        C335   1.269       .  A
O329       Cd332   2.537       .  S
C330        O338   1.263       .  A
C330        C918   1.482       .  S
C331        O336   1.271       .  A
C331        O334   1.261       .  A
C331        C845   1.495       .  S
Cd332       O339   2.468       .  S
Cd332       O338   2.424       .  S
Cd332       O337   2.504       .  S
Cd332       O333   2.494       .  S
Cd332       O336   2.518       .  S
Cd332       O334   2.445       .  S
C335        O339   1.265       .  A
C335        C813   1.499       .  S
O340        C343   1.266       .  A
O340       Cd345   2.466       .  S
C341        O350   1.260       .  A
C341        O346   1.268       .  A
C341        C781   1.492       .  S
O342        C348   1.267       .  A
O342       Cd345   2.501       .  S
C343        O351   1.269       .  A
C344        O349   1.267       .  A
C344        O347   1.266       .  A
C344        C749   1.494       .  S
Cd345       O352   2.445       .  S
Cd345       O351   2.536       .  S
Cd345       O350   2.431       .  S
Cd345       O346   2.501       .  S
Cd345       O349   2.512       .  S
Cd345       O347   2.485       .  S
C348        O352   1.263       .  A
C348        C854   1.492       .  S
O353        C356   1.269       .  A
O353       Cd358   2.489       .  S
C354        O363   1.265       .  A
C354        O359   1.264       .  A
O355        C361   1.271       .  A
O355       Cd358   2.549       .  S
C356        O364   1.263       .  A
C356        C982   1.476       .  S
C357        O362   1.272       .  A
C357        O360   1.263       .  A
C357        C726   1.499       .  S
Cd358       O365   2.450       .  S
Cd358       O364   2.438       .  S
Cd358       O363   2.492       .  S
Cd358       O359   2.526       .  S
Cd358       O362   2.545       .  S
Cd358       O360   2.463       .  S
C361        O365   1.264       .  A
C361        C685   1.505       .  S
O366        C369   1.263       .  A
O366       Cd371   2.500       .  S
C367        O376   1.263       .  A
C367        O372   1.268       .  A
C367        C790   1.485       .  S
O368        C374   1.271       .  A
O368       Cd371   2.545       .  S
C369        O377   1.266       .  A
C370        O375   1.269       .  A
C370        O373   1.264       .  A
C370        C662   1.500       .  S
Cd371       O378   2.446       .  S
Cd371       O377   2.487       .  S
Cd371       O376   2.435       .  S
Cd371       O372   2.465       .  S
Cd371       O375   2.539       .  S
Cd371       O373   2.447       .  S
C374        O378   1.261       .  A
C374        C717   1.490       .  S
O379        C382   1.262       .  A
O379       Cd384   2.448       .  S
C380        O389   1.269       .  A
C380        O385   1.264       .  A
O381        C387   1.262       .  A
O381       Cd384   2.460       .  S
C382        O390   1.266       .  A
C382        C589   1.479       .  S
C383        O388   1.268       .  A
C383        O386   1.264       .  A
C383        C822   1.492       .  S
Cd384       O391   2.510       .  S
Cd384       O390   2.477       .  S
Cd384       O389   2.545       .  S
Cd384       O385   2.465       .  S
Cd384       O388   2.518       .  S
Cd384       O386   2.468       .  S
C387        O391   1.269       .  A
C387        C621   1.495       .  S
O392        C395   1.261       .  A
O392       Cd397   2.453       .  S
C393        O402   1.271       .  A
C393        O398   1.264       .  A
O394        C400   1.259       .  A
O394       Cd397   2.457       .  S
C395        O403   1.266       .  A
C395        C566   1.487       .  S
C396        O401   1.269       .  A
C396        O399   1.265       .  A
C396        C694   1.492       .  S
Cd397       O404   2.528       .  S
Cd397       O403   2.469       .  S
Cd397       O402   2.546       .  S
Cd397       O398   2.459       .  S
Cd397       O401   2.518       .  S
Cd397       O399   2.497       .  S
C400        O404   1.269       .  A
C400        C630   1.505       .  S
O405        C408   1.265       .  A
O405       Cd410   2.496       .  S
C406        O415   1.266       .  A
C406        O411   1.262       .  A
O407        C413   1.269       .  A
O407       Cd410   2.514       .  S
C408        O416   1.260       .  A
C408        C557   1.489       .  S
C409        O414   1.264       .  A
C409        O412   1.264       .  A
C409        C950   1.492       .  S
Cd410       O417   2.482       .  S
Cd410       O416   2.426       .  S
Cd410       O415   2.445       .  S
Cd410       O411   2.510       .  S
Cd410       O414   2.491       .  S
Cd410       O412   2.482       .  S
C413        O417   1.265       .  A
C413        C525   1.499       .  S
O418        C421   1.266       .  A
O418       Cd423   2.495       .  S
C419        O428   1.267       .  A
C419        O424   1.264       .  A
O420        C426   1.267       .  A
O420       Cd423   2.515       .  S
C421        O429   1.262       .  A
C421        C493   1.488       .  S
C422        O427   1.269       .  A
C422        O425   1.265       .  A
C422        C758   1.505       .  S
Cd423       O430   2.499       .  S
Cd423       O429   2.450       .  S
Cd423       O428   2.509       .  S
Cd423       O424   2.519       .  S
Cd423       O427   2.549       .  S
Cd423       O425   2.464       .  S
C426        O430   1.265       .  A
C426        C534   1.505       .  S
O431        C434   1.265       .  A
O431       Cd436   2.495       .  S
C432        O441   1.267       .  A
C432        O437   1.263       .  A
O433        C439   1.269       .  A
O433       Cd436   2.521       .  S
C434        O442   1.263       .  A
C434        C502   1.488       .  S
C435        O440   1.269       .  A
C435        O438   1.264       .  A
C435        C653   1.491       .  S
Cd436       O443   2.461       .  S
Cd436       O442   2.463       .  S
Cd436       O441   2.517       .  S
Cd436       O437   2.507       .  S
Cd436       O440   2.533       .  S
Cd436       O438   2.467       .  S
C439        O443   1.262       .  A
C439        C461   1.497       .  S
O444        C447   1.265       .  A
O444       Cd449   2.476       .  S
C445        O454   1.266       .  A
C445        O450   1.263       .  A
O446        C452   1.270       .  A
O446       Cd449   2.526       .  S
C447        O455   1.261       .  A
C447        C598   1.465       .  S
C448        O453   1.270       .  A
C448        O451   1.264       .  A
C448        C886   1.491       .  S
Cd449       O456   2.464       .  S
Cd449       O455   2.435       .  S
Cd449       O454   2.482       .  S
Cd449       O450   2.512       .  S
Cd449       O453   2.509       .  S
Cd449       O451   2.442       .  S
C452        O456   1.264       .  A
C452        C470   1.493       .  S
C457        C458   1.403       .  A
C457        C462   1.411       .  A
C457        H467   1.083       .  S
C458        C463   1.498   1_554  S
C458        C459   1.418       .  A
C459        C464   1.519   1_554  S
C459        C460   1.413       .  A
C460        C461   1.408       .  A
C460        H465   1.082       .  S
C461        C462   1.422       .  A
C462        C466   1.519       .  S
C463        C468   1.419       .  A
C463        C472   1.403       .  A
C464        F480   1.382       .  S
C464        F481   1.382       .  S
C464        F482   1.384       .  S
C466        F477   1.385       .  S
C466        F478   1.383       .  S
C466        F479   1.384       .  S
C468        C473   1.519   1_556  S
C468        C469   1.415       .  A
C469        C470   1.407       .  A
C469        H474   1.083       .  S
C470        C471   1.419       .  A
C471        C475   1.518       .  S
C471        C472   1.409       .  A
C472        H476   1.083       .  S
C473        F486   1.384       .  S
C473        F487   1.382       .  S
C473        F488   1.382       .  S
C475        F483   1.382       .  S
C475        F484   1.384       .  S
C475        F485   1.385       .  S
C489        C490   1.402       .  A
C489        C494   1.410       .  A
C489        H499   1.082       .  S
C490        C495   1.487   1_556  S
C490        C491   1.415       .  A
C491        C496   1.521   1_556  S
C491        C492   1.406       .  A
C492        C493   1.407       .  A
C492        H497   1.083       .  S
C493        C494   1.421       .  A
C494        C498   1.519       .  S
C495        C500   1.414       .  A
C495        C504   1.403       .  A
C496        F512   1.382       .  S
C496        F513   1.382       .  S
C496        F514   1.385       .  S
C498        F509   1.383       .  S
C498        F510   1.384       .  S
C498        F511   1.383       .  S
C500        C505   1.521   1_554  S
C500        C501   1.406       .  A
C501        C502   1.407       .  A
C501        H506   1.083       .  S
C502        C503   1.420       .  A
C503        C507   1.518       .  S
C503        C504   1.410       .  A
C504        H508   1.083       .  S
C505        F518   1.384       .  S
C505        F519   1.382       .  S
C505        F520   1.383       .  S
C507        F515   1.384       .  S
C507        F516   1.384       .  S
C507        F517   1.383       .  S
C521        C522   1.402       .  A
C521        C526   1.412       .  A
C521        H531   1.083       .  S
C522        C527   1.496   1_554  S
C522        C523   1.415       .  A
C523        C528   1.517       .  S
C523        C524   1.413       .  A
C524        C525   1.409       .  A
C524        H529   1.082       .  S
C525        C526   1.424       .  A
C526        C530   1.519       .  S
C527        C532   1.418   1_556  A
C527        C536   1.404       .  A
C528        F544   1.382   1_554  S
C528        F545   1.383       .  S
C528        F546   1.384       .  S
C530        F541   1.384       .  S
C530        F542   1.385       .  S
C530        F543   1.382       .  S
C532        C537   1.519       .  S
C532        C533   1.411   1_554  A
C533        C534   1.411       .  A
C533        H538   1.084       .  S
C534        C535   1.424       .  A
C535        C539   1.518       .  S
C535        C536   1.413       .  A
C536        H540   1.083       .  S
C537        F550   1.384       .  S
C537        F551   1.383       .  S
C537        F552   1.382       .  S
C539        F547   1.383       .  S
C539        F548   1.384       .  S
C539        F549   1.385       .  S
C553        C554   1.398       .  A
C553        C558   1.403       .  A
C553        H563   1.083       .  S
C554        C559   1.481   1_554  S
C554        C555   1.414       .  A
C555        C560   1.520       .  S
C555        C556   1.408       .  A
C556        C557   1.409       .  A
C556        H561   1.082       .  S
C557        C558   1.423       .  A
C558        C562   1.520       .  S
C559        C564   1.413       .  A
C559        C568   1.401       .  A
C560        F576   1.382       .  S
C560        F577   1.382       .  S
C560        F578   1.385       .  S
C562        F573   1.384       .  S
C562        F574   1.385       .  S
C562        F575   1.383       .  S
C564        C569   1.521   1_556  S
C564        C565   1.406       .  A
C565        C566   1.408       .  A
C565        H570   1.083       .  S
C566        C567   1.423       .  A
C567        C571   1.521       .  S
C567        C568   1.407       .  A
C568        H572   1.083       .  S
C569        F582   1.384       .  S
C569        F583   1.381       .  S
C569        F584   1.381       .  S
C571        F579   1.384       .  S
C571        F580   1.383       .  S
C571        F581   1.385       .  S
C585        C586   1.400       .  A
C585        C590   1.406       .  A
C585        H595   1.083   1_554  S
C586        C591   1.480   1_554  S
C586        C587   1.415       .  A
C587        C592   1.520       .  S
C587        C588   1.406       .  A
C588        C589   1.404       .  A
C588        H593   1.083       .  S
C589        C590   1.421       .  A
C590        C594   1.521       .  S
C591        C596   1.417       .  A
C591        C600   1.401       .  A
C592        F608   1.382       .  S
C592        F609   1.382       .  S
C592        F610   1.384       .  S
C594        F605   1.383       .  S
C594        F606   1.384       .  S
C594        F607   1.383       .  S
C596        C601   1.520       .  S
C596        C597   1.408       .  A
C597        C598   1.400       .  A
C597        H602   1.083       .  S
C598        C599   1.413       .  A
C599        C603   1.519       .  S
C599        C600   1.402       .  A
C600        H604   1.083   1_556  S
C601        F614   1.385       .  S
C601        F615   1.382       .  S
C601        F616   1.382       .  S
C603        F611   1.383       .  S
C603        F612   1.383       .  S
C603        F613   1.384       .  S
C617        C618   1.401       .  A
C617        C622   1.410       .  A
C617        H627   1.083       .  S
C618        C623   1.493   1_554  S
C618        C619   1.416       .  A
C619        C624   1.520       .  S
C619        C620   1.411       .  A
C620        C621   1.408       .  A
C620        H625   1.083       .  S
C621        C622   1.424       .  A
C622        C626   1.518       .  S
C623        C628   1.415       .  A
C623        C632   1.398       .  A
C624        F640   1.382       .  S
C624        F641   1.382       .  S
C624        F642   1.385       .  S
C626        F637   1.382       .  S
C626        F638   1.385       .  S
C626        F639   1.384       .  S
C628        C633   1.519       .  S
C628        C629   1.411       .  A
C629        C630   1.410       .  A
C629        H634   1.082       .  S
C630        C631   1.432       .  A
C631        C635   1.521       .  S
C631        C632   1.412       .  A
C632        H636   1.083   1_556  S
C633        F646   1.384       .  S
C633        F647   1.382       .  S
C633        F648   1.381       .  S
C635        F643   1.385       .  S
C635        F644   1.383       .  S
C635        F645   1.383       .  S
C649        C650   1.403       .  A
C649        C654   1.411       .  A
C649        H659   1.083       .  S
C650        C655   1.495       .  S
C650        C651   1.418       .  A
C651        C656   1.519       .  S
C651        C652   1.414       .  A
C652        C653   1.406       .  A
C652        H657   1.082       .  S
C653        C654   1.419       .  A
C654        C658   1.518       .  S
C655        C660   1.415       .  A
C655        C664   1.405       .  A
C656        F672   1.383       .  S
C656        F673   1.383       .  S
C656        F674   1.384       .  S
C658        F669   1.382       .  S
C658        F670   1.385       .  S
C658        F671   1.384       .  S
C660        C665   1.522       .  S
C660        C661   1.406       .  A
C661        C662   1.408       .  A
C661        H666   1.082       .  S
C662        C663   1.423       .  A
C663        C667   1.517       .  S
C663        C664   1.418       .  A
C664        H668   1.083       .  S
C665        F678   1.384       .  S
C665        F679   1.382       .  S
C665        F680   1.382       .  S
C667        F675   1.385       .  S
C667        F676   1.384       .  S
C667        F677   1.382       .  S
C681        C682   1.407       .  A
C681        C686   1.419       .  A
C681        H691   1.083       .  S
C682        C687   1.503   1_545  S
C682        C683   1.417       .  A
C683        C688   1.521       .  S
C683        C684   1.408       .  A
C684        C685   1.409       .  A
C684        H689   1.083       .  S
C685        C686   1.424       .  A
C686        C690   1.517       .  S
C687        C692   1.419       .  A
C687        C696   1.405       .  A
C688        F704   1.382       .  S
C688        F705   1.382       .  S
C688        F706   1.384       .  S
C690        F701   1.383       .  S
C690        F702   1.385       .  S
C690        F703   1.384       .  S
C692        C697   1.518       .  S
C692        C693   1.412       .  A
C693        C694   1.404       .  A
C693        H698   1.083       .  S
C694        C695   1.419       .  A
C695        C699   1.518       .  S
C695        C696   1.414       .  A
C696        H700   1.081       .  S
C697        F710   1.385       .  S
C697        F711   1.382       .  S
C697        F712   1.383   1_565  S
C699        F707   1.385       .  S
C699        F708   1.383       .  S
C699        F709   1.381       .  S
C713        C714   1.402       .  A
C713        C718   1.410       .  A
C713        H723   1.083   1_554  S
C714        C719   1.498   1_554  S
C714        C715   1.421       .  A
C715        C720   1.519       .  S
C715        C716   1.416       .  A
C716        C717   1.404       .  A
C716        H721   1.083       .  S
C717        C718   1.421       .  A
C718        C722   1.521       .  S
C719        C724   1.418       .  A
C719        C728   1.401       .  A
C720        F736   1.382       .  S
C720        F737   1.382       .  S
C720        F738   1.384       .  S
C722        F733   1.384   1_554  S
C722        F734   1.382       .  S
C722        F735   1.384       .  S
C724        C729   1.518       .  S
C724        C725   1.417       .  A
C725        C726   1.408       .  A
C725        H730   1.082       .  S
C726        C727   1.425       .  A
C727        C731   1.521       .  S
C727        C728   1.409       .  A
C728        H732   1.083   1_556  S
C729        F742   1.384       .  S
C729        F743   1.383       .  S
C729        F744   1.382       .  S
C731        F739   1.382       .  S
C731        F740   1.383       .  S
C731        F741   1.385       .  S
C745        C746   1.403       .  A
C745        C750   1.413       .  A
C745        H755   1.083       .  S
C746        C751   1.498       .  S
C746        C747   1.418       .  A
C747        C752   1.518       .  S
C747        C748   1.411       .  A
C748        C749   1.405       .  A
C748        H753   1.083       .  S
C749        C750   1.423       .  A
C750        C754   1.519       .  S
C751        C756   1.415       .  A
C751        C760   1.405       .  A
C752        F768   1.382       .  S
C752        F769   1.382       .  S
C752        F770   1.385       .  S
C754        F765   1.383       .  S
C754        F766   1.385       .  S
C754        F767   1.382       .  S
C756        C761   1.520       .  S
C756        C757   1.408       .  A
C757        C758   1.409       .  A
C757        H762   1.083       .  S
C758        C759   1.426       .  A
C759        C763   1.518       .  S
C759        C760   1.418       .  A
C760        H764   1.083       .  S
C761        F774   1.384       .  S
C761        F775   1.382       .  S
C761        F776   1.382       .  S
C763        F771   1.385       .  S
C763        F772   1.383       .  S
C763        F773   1.383       .  S
C777        C778   1.396       .  A
C777        C782   1.405   1_554  A
C777        H787   1.083       .  S
C778        C783   1.481       .  S
C778        C779   1.415   1_554  A
C779        C784   1.521       .  S
C779        C780   1.408       .  A
C780        C781   1.408       .  A
C780        H785   1.082       .  S
C781        C782   1.428       .  A
C782        C786   1.521       .  S
C783        C788   1.414       .  A
C783        C792   1.399       .  A
C784        F800   1.382       .  S
C784        F801   1.383       .  S
C784        F802   1.384       .  S
C786        F797   1.385   1_556  S
C786        F798   1.383       .  S
C786        F799   1.383       .  S
C788        C793   1.520       .  S
C788        C789   1.405       .  A
C789        C790   1.407       .  A
C789        H794   1.082       .  S
C790        C791   1.423       .  A
C791        C795   1.520       .  S
C791        C792   1.405       .  A
C792        H796   1.083       .  S
C793        F806   1.385       .  S
C793        F807   1.382       .  S
C793        F808   1.382       .  S
C795        F803   1.385       .  S
C795        F804   1.384       .  S
C795        F805   1.383       .  S
C809        C810   1.404       .  A
C809        C814   1.416       .  A
C809        H819   1.083       .  S
C810        C815   1.495   1_655  S
C810        C811   1.416       .  A
C811        C816   1.522       .  S
C811        C812   1.409       .  A
C812        C813   1.408       .  A
C812        H817   1.083       .  S
C813        C814   1.423       .  A
C814        C818   1.517       .  S
C815        C820   1.417       .  A
C815        C824   1.403       .  A
C816        F832   1.382   1_655  S
C816        F833   1.382   1_655  S
C816        F834   1.384       .  S
C818        F829   1.381       .  S
C818        F830   1.385       .  S
C818        F831   1.384       .  S
C820        C825   1.518       .  S
C820        C821   1.413       .  A
C821        C822   1.407       .  A
C821        H826   1.083       .  S
C822        C823   1.420       .  A
C823        C827   1.518       .  S
C823        C824   1.410       .  A
C824        H828   1.083       .  S
C825        F838   1.385       .  S
C825        F839   1.382       .  S
C825        F840   1.382       .  S
C827        F835   1.385       .  S
C827        F836   1.384       .  S
C827        F837   1.383       .  S
C841        C842   1.400       .  A
C841        C846   1.408       .  A
C841        H851   1.083       .  S
C842        C847   1.491   1_554  S
C842        C843   1.414       .  A
C843        C848   1.518       .  S
C843        C844   1.412       .  A
C844        C845   1.409       .  A
C844        H849   1.083       .  S
C845        C846   1.425       .  A
C846        C850   1.520       .  S
C847        C852   1.416       .  A
C847        C856   1.402       .  A
C848        F864   1.382       .  S
C848        F865   1.383   1_554  S
C848        F866   1.384       .  S
C850        F861   1.383       .  S
C850        F862   1.385       .  S
C850        F863   1.383       .  S
C852        C857   1.521       .  S
C852        C853   1.407       .  A
C853        C854   1.407       .  A
C853        H858   1.083       .  S
C854        C855   1.424       .  A
C855        C859   1.520       .  S
C855        C856   1.413       .  A
C856        H860   1.083   1_556  S
C857        F870   1.384       .  S
C857        F871   1.382       .  S
C857        F872   1.382       .  S
C859        F867   1.383       .  S
C859        F868   1.383       .  S
C859        F869   1.384       .  S
C873        C874   1.400       .  A
C873        C878   1.407       .  A
C873        H883   1.083       .  S
C874        C879   1.490   1_655  S
C874        C875   1.414       .  A
C875        C880   1.517       .  S
C875        C876   1.413       .  A
C876        C877   1.408       .  A
C876        H881   1.082       .  S
C877        C878   1.426       .  A
C878        C882   1.523       .  S
C879        C884   1.416       .  A
C879        C888   1.402       .  A
C880        F896   1.383       .  S
C880        F897   1.382       .  S
C880        F898   1.384       .  S
C882        F893   1.383       .  S
C882        F894   1.384       .  S
C882        F895   1.385       .  S
C884        C889   1.521       .  S
C884        C885   1.408       .  A
C885        C886   1.407       .  A
C885        H890   1.083       .  S
C886        C887   1.421       .  A
C887        C891   1.518       .  S
C887        C888   1.411       .  A
C888        H892   1.083       .  S
C889        F902   1.384       .  S
C889        F903   1.382       .  S
C889        F904   1.382       .  S
C891        F899   1.383       .  S
C891        F900   1.383       .  S
C891        F901   1.384       .  S
C905        C906   1.400       .  A
C905        C910   1.410       .  A
C905        H915   1.083       .  S
C906        C911   1.486   1_556  S
C906        C907   1.414       .  A
C907        C912   1.521   1_556  S
C907        C908   1.407       .  A
C908        C909   1.409       .  A
C908        H913   1.082       .  S
C909        C910   1.427       .  A
C910        C914   1.521       .  S
C911        C916   1.413       .  A
C911        C920   1.405       .  A
C912        F928   1.382       .  S
C912        F929   1.382       .  S
C912        F930   1.384   1_554  S
C914        F925   1.384       .  S
C914        F926   1.383       .  S
C914        F927   1.384       .  S
C916        C921   1.520   1_554  S
C916        C917   1.403       .  A
C917        C918   1.405       .  A
C917        H922   1.083       .  S
C918        C919   1.417       .  A
C919        C923   1.517       .  S
C919        C920   1.412       .  A
C920        H924   1.083       .  S
C921        F934   1.385       .  S
C921        F935   1.382       .  S
C921        F936   1.382       .  S
C923        F931   1.384       .  S
C923        F932   1.383       .  S
C923        F933   1.383       .  S
C937        C938   1.399       .  A
C937        C942   1.404       .  A
C937        H947   1.083       .  S
C938        C943   1.487       .  S
C938        C939   1.415       .  A
C939        C944   1.518       .  S
C939        C940   1.413       .  A
C940        C941   1.410       .  A
C940        H945   1.082       .  S
C941        C942   1.426       .  A
C942        C946   1.522       .  S
C943        C948   1.416   1_545  A
C943        C952   1.401   1_545  A
C944        F960   1.382       .  S
C944        F961   1.381       .  S
C944        F962   1.384       .  S
C946        F957   1.383       .  S
C946        F958   1.385       .  S
C946        F959   1.383       .  S
C948        C953   1.521       .  S
C948        C949   1.410       .  A
C949        C950   1.408       .  A
C949        H954   1.083       .  S
C950        C951   1.423       .  A
C951        C955   1.520       .  S
C951        C952   1.408       .  A
C952        H956   1.083   1_565  S
C953        F966   1.384       .  S
C953        F967   1.382   1_565  S
C953        F968   1.381   1_565  S
C955        F963   1.383       .  S
C955        F964   1.383       .  S
C955        F965   1.385       .  S
C969        C970   1.398       .  A
C969        C974   1.405       .  A
C969        H979   1.083   1_554  S
C970        C975   1.484   1_554  S
C970        C971   1.417       .  A
C971        C976   1.520       .  S
C971        C972   1.410       .  A
C972        C973   1.405       .  A
C972        H977   1.083       .  S
C973        C974   1.421       .  A
C974        C978   1.520       .  S
C975        C980   1.416       .  A
C975        C984   1.403       .  A
C976        F992   1.382       .  S
C976        F993   1.383       .  S
C976        F994   1.384       .  S
C978        F989   1.383       .  S
C978        F990   1.384   1_554  S
C978        F991   1.383       .  S
C980        C985   1.519       .  S
C980        C981   1.406       .  A
C981        C982   1.402       .  A
C981        H986   1.082       .  S
C982        C983   1.417       .  A
C983        C987   1.519       .  S
C983        C984   1.408       .  A
C984        H988   1.083       .  S
C985        F998   1.384       .  S
C985        F999   1.383       .  S
C985       F1000   1.383   1_556  S
C987        F995   1.384       .  S
C987        F996   1.382       .  S
C987        F997   1.385       .  S
C1001      C1002   1.402       .  A
C1001      C1006   1.412       .  A
C1001      H1011   1.083       .  S
C1002      C1007   1.489   1_554  S
C1002      C1003   1.417       .  A
C1003      C1008   1.522       .  S
C1003      C1004   1.406       .  A
C1004      C1005   1.406       .  A
C1004      H1009   1.082       .  S
C1005      C1006   1.423       .  A
C1006      C1010   1.517       .  S
C1007      C1012   1.412       .  A
C1007      C1016   1.404       .  A
C1008      F1024   1.381   1_554  S
C1008      F1025   1.381       .  S
C1008      F1026   1.385       .  S
C1010      F1021   1.384       .  S
C1010      F1022   1.386       .  S
C1010      F1023   1.382       .  S
C1012      C1017   1.519   1_556  S
C1012      C1013   1.406       .  A
C1013      C1014   1.410       .  A
C1013      H1018   1.082       .  S
C1014      C1015   1.423       .  A
C1015      C1019   1.519       .  S
C1015      C1016   1.411       .  A
C1016      H1020   1.083       .  S
C1017      F1030   1.385   1_554  S
C1017      F1031   1.382       .  S
C1017      F1032   1.381       .  S
C1019      F1027   1.385       .  S
C1019      F1028   1.384       .  S
C1019      F1029   1.383       .  S
C1033      C1034   1.400       .  A
C1033      C1038   1.408       .  A
C1033      H1043   1.083       .  S
C1034      C1039   1.482       .  S
C1034      C1035   1.412       .  A
C1035      C1040   1.520       .  S
C1035      C1036   1.404       .  A
C1036      C1037   1.409       .  A
C1036      H1041   1.082       .  S
C1037      C1038   1.426       .  A
C1038      C1042   1.521       .  S
C1039      C1044   1.415       .  A
C1039      C1048   1.399       .  A
C1040      F1056   1.382       .  S
C1040      F1057   1.382       .  S
C1040      F1058   1.385       .  S
C1042      F1053   1.384       .  S
C1042      F1054   1.385       .  S
C1042      F1055   1.383       .  S
C1044      C1049   1.520       .  S
C1044      C1045   1.407       .  A
C1045      C1046   1.407       .  A
C1045      H1050   1.083       .  S
C1046      C1047   1.422       .  A
C1047      C1051   1.519       .  S
C1047      C1048   1.406       .  A
C1048      H1052   1.083       .  S
C1049      F1062   1.384       .  S
C1049      F1063   1.382       .  S
C1049      F1064   1.383       .  S
C1051      F1059   1.384       .  S
C1051      F1060   1.383       .  S
C1051      F1061   1.385       .  S
C1065      C1066   1.403       .  A
C1065      C1070   1.411       .  A
C1065      H1075   1.083       .  S
C1066      C1071   1.490       .  S
C1066      C1067   1.415       .  A
C1067      C1072   1.520       .  S
C1067      C1068   1.409       .  A
C1068      C1069   1.408       .  A
C1068      H1073   1.083       .  S
C1069      C1070   1.420       .  A
C1070      C1074   1.518       .  S
C1071      C1076   1.415       .  A
C1071      C1080   1.404       .  A
C1072      F1088   1.382       .  S
C1072      F1089   1.382       .  S
C1072      F1090   1.385       .  S
C1074      F1085   1.385       .  S
C1074      F1086   1.382       .  S
C1074      F1087   1.383       .  S
C1076      C1081   1.522       .  S
C1076      C1077   1.406       .  A
C1077      C1078   1.408       .  A
C1077      H1082   1.082       .  S
C1078      C1079   1.420       .  A
C1079      C1083   1.516       .  S
C1079      C1080   1.414       .  A
C1080      H1084   1.082       .  S
C1081      F1094   1.385       .  S
C1081      F1095   1.382       .  S
C1081      F1096   1.382       .  S
C1083      F1091   1.382       .  S
C1083      F1092   1.383       .  S
C1083      F1093   1.385       .  S
C1097      C1098   1.399       .  A
C1097      C1102   1.407       .  A
C1097      H1107   1.083       .  S
C1098      C1103   1.484       .  S
C1098      C1099   1.415       .  A
C1099      C1104   1.520       .  S
C1099      C1100   1.407       .  A
C1100      C1101   1.406       .  A
C1100      H1105   1.082       .  S
C1101      C1102   1.425       .  A
C1102      C1106   1.521       .  S
C1103      C1108   1.413       .  A
C1103      C1112   1.399       .  A
C1104      F1120   1.382       .  S
C1104      F1121   1.382       .  S
C1104      F1122   1.384       .  S
C1106      F1117   1.384       .  S
C1106      F1118   1.385       .  S
C1106      F1119   1.383       .  S
C1108      C1113   1.520       .  S
C1108      C1109   1.406       .  A
C1109      C1110   1.409       .  A
C1109      H1114   1.082       .  S
C1110      C1111   1.428       .  A
C1111      C1115   1.522       .  S
C1111      C1112   1.409       .  A
C1112      H1116   1.083       .  S
C1113      F1126   1.384       .  S
C1113      F1127   1.382       .  S
C1113      F1128   1.382       .  S
C1115      F1123   1.383       .  S
C1115      F1124   1.382       .  S
C1115      F1125   1.386       .  S
C1129      C1130   1.404       .  A
C1129      C1134   1.413       .  A
C1129      H1139   1.083       .  S
C1130      C1135   1.495       .  S
C1130      C1131   1.414       .  A
C1131      C1136   1.519       .  S
C1131      C1132   1.408       .  A
C1132      C1133   1.410       .  A
C1132      H1137   1.082       .  S
C1133      C1134   1.424       .  A
C1134      C1138   1.519       .  S
C1135      C1140   1.416       .  A
C1135      C1144   1.402       .  A
C1136      F1152   1.382       .  S
C1136      F1153   1.382       .  S
C1136      F1154   1.385       .  S
C1138      F1149   1.383       .  S
C1138      F1150   1.385       .  S
C1138      F1151   1.383       .  S
C1140      C1145   1.521       .  S
C1140      C1141   1.409       .  A
C1141      C1142   1.409       .  A
C1141      H1146   1.082       .  S
C1142      C1143   1.427       .  A
C1143      C1147   1.519       .  S
C1143      C1144   1.416       .  A
C1144      H1148   1.083       .  S
C1145      F1158   1.384       .  S
C1145      F1159   1.382       .  S
C1145      F1160   1.383       .  S
C1147      F1155   1.385       .  S
C1147      F1156   1.384       .  S
C1147      F1157   1.383       .  S
C1161      C1162   1.399       .  A
C1161      C1166   1.404       .  A
C1161      H1171   1.083       .  S
C1162      C1167   1.482       .  S
C1162      C1163   1.415       .  A
C1163      C1168   1.519       .  S
C1163      C1164   1.409       .  A
C1164      C1165   1.405       .  A
C1164      H1169   1.082       .  S
C1165      C1166   1.421       .  A
C1166      C1170   1.519       .  S
C1167      C1172   1.416       .  A
C1167      C1176   1.399       .  A
C1168      F1184   1.383       .  S
C1168      F1185   1.382       .  S
C1168      F1186   1.384       .  S
C1170      F1181   1.382       .  S
C1170      F1182   1.385       .  S
C1170      F1183   1.384       .  S
C1172      C1177   1.520       .  S
C1172      C1173   1.408       .  A
C1173      C1174   1.403       .  A
C1173      H1178   1.082       .  S
C1174      C1175   1.421       .  A
C1175      C1179   1.519       .  S
C1175      C1176   1.407       .  A
C1176      H1180   1.083       .  S
C1177      F1190   1.384       .  S
C1177      F1191   1.383       .  S
C1177      F1192   1.382       .  S
C1179      F1187   1.384       .  S
C1179      F1188   1.382       .  S
C1179      F1189   1.382       .  S
C1193      C1194   1.403       .  A
C1193      C1198   1.408       .  A
C1193      H1203   1.083       .  S
C1194      C1199   1.493       .  S
C1194      C1195   1.417       .  A
C1195      C1200   1.517       .  S
C1195      C1196   1.412       .  A
C1196      C1197   1.405       .  A
C1196      H1201   1.083       .  S
C1197      C1198   1.415       .  A
C1198      C1202   1.517       .  S
C1199      C1204   1.415       .  A
C1199      C1208   1.402       .  A
C1200      F1216   1.382       .  S
C1200      F1217   1.382       .  S
C1200      F1218   1.385       .  S
C1202      F1213   1.382       .  S
C1202      F1214   1.385       .  S
C1202      F1215   1.383       .  S
C1204      C1209   1.523       .  S
C1204      C1205   1.408       .  A
C1205      C1206   1.411       .  A
C1205      H1210   1.082       .  S
C1206      C1207   1.427       .  A
C1207      C1211   1.518       .  S
C1207      C1208   1.415       .  A
C1208      H1212   1.083       .  S
C1209      F1222   1.384       .  S
C1209      F1223   1.382       .  S
C1209      F1224   1.382       .  S
C1211      F1219   1.385       .  S
C1211      F1220   1.383       .  S
C1211      F1221   1.383       .  S
C1225      C1226   1.401       .  A
C1225      C1230   1.410       .  A
C1225      H1235   1.083       .  S
C1226      C1231   1.491       .  S
C1226      C1227   1.415       .  A
C1227      C1232   1.519       .  S
C1227      C1228   1.410       .  A
C1228      C1229   1.407       .  A
C1228      H1233   1.083       .  S
C1229      C1230   1.425       .  A
C1230      C1234   1.520       .  S
C1231      C1236   1.416       .  A
C1231      C1240   1.405       .  A
C1232      F1248   1.382       .  S
C1232      F1249   1.382       .  S
C1232      F1250   1.385       .  S
C1234      F1245   1.383       .  S
C1234      F1246   1.385       .  S
C1234      F1247   1.383       .  S
C1236      C1241   1.522       .  S
C1236      C1237   1.405       .  A
C1237      C1238   1.406       .  A
C1237      H1242   1.083       .  S
C1238      C1239   1.422       .  A
C1239      C1243   1.518       .  S
C1239      C1240   1.415       .  A
C1240      H1244   1.083       .  S
C1241      F1254   1.385       .  S
C1241      F1255   1.382       .  S
C1241      F1256   1.381       .  S
C1243      F1251   1.385       .  S
C1243      F1252   1.384       .  S
C1243      F1253   1.382       .  S
C1257      C1258   1.401       .  A
C1257      C1262   1.411       .  A
C1257      H1267   1.083       .  S
C1258      C1263   1.496   1_565  S
C1258      C1259   1.414       .  A
C1259      C1264   1.517       .  S
C1259      C1260   1.412       .  A
C1260      C1261   1.410       .  A
C1260      H1265   1.082       .  S
C1261      C1262   1.427       .  A
C1262      C1266   1.520       .  S
C1263      C1268   1.419       .  A
C1263      C1272   1.405       .  A
C1264      F1280   1.382       .  S
C1264      F1281   1.383       .  S
C1264      F1282   1.385       .  S
C1266      F1277   1.384       .  S
C1266      F1278   1.385       .  S
C1266      F1279   1.383       .  S
C1268      C1273   1.516       .  S
C1268      C1269   1.409       .  A
C1269      C1270   1.405       .  A
C1269      H1274   1.084       .  S
C1270      C1271   1.421       .  A
C1271      C1275   1.519       .  S
C1271      C1272   1.412       .  A
C1272      H1276   1.082       .  S
C1273      F1286   1.384       .  S
C1273      F1287   1.383       .  S
C1273      F1288   1.379   1_545  S
C1275      F1283   1.385       .  S
C1275      F1284   1.383       .  S
C1275      F1285   1.383       .  S
C1289      C1290   1.404       .  A
C1289      C1294   1.414       .  A
C1289      H1299   1.082       .  S
C1290      C1295   1.502       .  S
C1290      C1291   1.420       .  A
C1291      C1296   1.519       .  S
C1291      C1292   1.414       .  A
C1292      C1293   1.406       .  A
C1292      H1297   1.083       .  S
C1293      C1294   1.419       .  A
C1294      C1298   1.517       .  S
C1295      C1300   1.418       .  A
C1295      C1304   1.403       .  A
C1296      F1312   1.383       .  S
C1296      F1313   1.382       .  S
C1296      F1314   1.385       .  S
C1298      F1309   1.384       .  S
C1298      F1310   1.383       .  S
C1298      F1311   1.384       .  S
C1300      C1305   1.519       .  S
C1300      C1301   1.413       .  A
C1301      C1302   1.408       .  A
C1301      H1306   1.082       .  S
C1302      C1303   1.423       .  A
C1303      C1307   1.517       .  S
C1303      C1304   1.416       .  A
C1304      H1308   1.082       .  S
C1305      F1318   1.384       .  S
C1305      F1319   1.383       .  S
C1305      F1320   1.382       .  S
C1307      F1315   1.385       .  S
C1307      F1316   1.382       .  S
C1307      F1317   1.382       .  S
C1321      C1322   1.401       .  A
C1321      C1326   1.412       .  A
C1321      H1331   1.083       .  S
C1322      C1327   1.499       .  S
C1322      C1323   1.416       .  A
C1323      C1328   1.518       .  S
C1323      C1324   1.412       .  A
C1324      C1325   1.409       .  A
C1324      H1329   1.082       .  S
C1325      C1326   1.428       .  A
C1326      C1330   1.521       .  S
C1327      C1332   1.417       .  A
C1327      C1336   1.404       .  A
C1328      F1344   1.382       .  S
C1328      F1345   1.382       .  S
C1328      F1346   1.385       .  S
C1330      F1341   1.383       .  S
C1330      F1342   1.385       .  S
C1330      F1343   1.384       .  S
C1332      C1337   1.521       .  S
C1332      C1333   1.411       .  A
C1333      C1334   1.410       .  A
C1333      H1338   1.083       .  S
C1334      C1335   1.422       .  A
C1335      C1339   1.516       .  S
C1335      C1336   1.416       .  A
C1336      H1340   1.083       .  S
C1337      F1350   1.384       .  S
C1337      F1351   1.383       .  S
C1337      F1352   1.383       .  S
C1339      F1347   1.385       .  S
C1339      F1348   1.383       .  S
C1339      F1349   1.382       .  S
C1353      C1354   1.401       .  A
C1353      C1358   1.406       .  A
C1353      H1363   1.083       .  S
C1354      C1359   1.477       .  S
C1354      C1355   1.412       .  A
C1355      C1360   1.520       .  S
C1355      C1356   1.403       .  A
C1356      C1357   1.407       .  A
C1356      H1361   1.083       .  S
C1357      C1358   1.421       .  A
C1358      C1362   1.520       .  S
C1359      C1364   1.413       .  A
C1359      C1368   1.397       .  A
C1360      F1376   1.382       .  S
C1360      F1377   1.382       .  S
C1360      F1378   1.385       .  S
C1362      F1373   1.384       .  S
C1362      F1374   1.385       .  S
C1362      F1375   1.383       .  S
C1364      C1369   1.520       .  S
C1364      C1365   1.404       .  A
C1365      C1366   1.408       .  A
C1365      H1370   1.082       .  S
C1366      C1367   1.427       .  A
C1367      C1371   1.522       .  S
C1367      C1368   1.403       .  A
C1368      H1372   1.083       .  S
C1369      F1382   1.385       .  S
C1369      F1383   1.382       .  S
C1369      F1384   1.382       .  S
C1371      F1379   1.382       .  S
C1371      F1380   1.384       .  S
C1371      F1381   1.385       .  S
C1385      C1386   1.400   1_655  A
C1385      C1390   1.405       .  A
C1385      H1395   1.085   1_655  S
C1386      C1391   1.489       .  S
C1386      C1387   1.417   1_455  A
C1387      C1392   1.519       .  S
C1387      C1388   1.411       .  A
C1388      C1389   1.404       .  A
C1388      H1393   1.083       .  S
C1389      C1390   1.423       .  A
C1390      C1394   1.522       .  S
C1391      C1396   1.414       .  A
C1391      C1400   1.399       .  A
C1392      F1408   1.381   1_655  S
C1392      F1409   1.382   1_655  S
C1392      F1410   1.382       .  S
C1394      F1405   1.383       .  S
C1394      F1406   1.384       .  S
C1394      F1407   1.379       .  S
C1396      C1401   1.518       .  S
C1396      C1397   1.412       .  A
C1397      C1398   1.411       .  A
C1397      H1402   1.083       .  S
C1398      C1399   1.426       .  A
C1399      C1403   1.519       .  S
C1399      C1400   1.407       .  A
C1400      H1404   1.084       .  S
C1401      F1414   1.384       .  S
C1401      F1415   1.382       .  S
C1401      F1416   1.383       .  S
C1403      F1411   1.386       .  S
C1403      F1412   1.383       .  S
C1403      F1413   1.383       .  S
C1417      C1418   1.405       .  A
C1417      C1422   1.412       .  A
C1417      H1427   1.083       .  S
C1418      C1423   1.495       .  S
C1418      C1419   1.418       .  A
C1419      C1424   1.519       .  S
C1419      C1420   1.410       .  A
C1420      C1421   1.405       .  A
C1420      H1425   1.084       .  S
C1421      C1422   1.419       .  A
C1422      C1426   1.519       .  S
C1423      C1428   1.416       .  A
C1423      C1432   1.401       .  A
C1424      F1440   1.382       .  S
C1424      F1441   1.382       .  S
C1424      F1442   1.384       .  S
C1426      F1437   1.384       .  S
C1426      F1438   1.384       .  S
C1426      F1439   1.382       .  S
C1428      C1433   1.518       .  S
C1428      C1429   1.414       .  A
C1429      C1430   1.409       .  A
C1429      H1434   1.082       .  S
C1430      C1431   1.424       .  A
C1431      C1435   1.519       .  S
C1431      C1432   1.408       .  A
C1432      H1436   1.083       .  S
C1433      F1446   1.385       .  S
C1433      F1447   1.382       .  S
C1433      F1448   1.382       .  S
C1435      F1443   1.385       .  S
C1435      F1444   1.382       .  S
C1435      F1445   1.384       .  S
C1449      C1450   1.398       .  A
C1449      C1454   1.406       .  A
C1449      H1459   1.083       .  S
C1450      C1455   1.488   1_655  S
C1450      C1451   1.412       .  A
C1451      C1456   1.518       .  S
C1451      C1452   1.412       .  A
C1452      C1453   1.412       .  A
C1452      H1457   1.083       .  S
C1453      C1454   1.429       .  A
C1454      C1458   1.522       .  S
C1455      C1460   1.417       .  A
C1455      C1464   1.401       .  A
C1456      F1472   1.381       .  S
C1456      F1473   1.381       .  S
C1456      F1474   1.384       .  S
C1458      F1469   1.383       .  S
C1458      F1470   1.385       .  S
C1458      F1471   1.384       .  S
C1460      C1465   1.521       .  S
C1460      C1461   1.409       .  A
C1461      C1462   1.408       .  A
C1461      H1466   1.083       .  S
C1462      C1463   1.422       .  A
C1463      C1467   1.517       .  S
C1463      C1464   1.410       .  A
C1464      H1468   1.084       .  S
C1465      F1478   1.384       .  S
C1465      F1479   1.382   1_455  S
C1465      F1480   1.382   1_455  S
C1467      F1475   1.385       .  S
C1467      F1476   1.382       .  S
C1467      F1477   1.383       .  S
C1481      C1482   1.400       .  A
C1481      C1486   1.404       .  A
C1481      H1491   1.083       .  S
C1482      C1487   1.478       .  S
C1482      C1483   1.412       .  A
C1483      C1488   1.520       .  S
C1483      C1484   1.406       .  A
C1484      C1485   1.408       .  A
C1484      H1489   1.083       .  S
C1485      C1486   1.420       .  A
C1486      C1490   1.519       .  S
C1487      C1492   1.415       .  A
C1487      C1496   1.400       .  A
C1488      F1504   1.382       .  S
C1488      F1505   1.382       .  S
C1488      F1506   1.384       .  S
C1490      F1501   1.385       .  S
C1490      F1502   1.383       .  S
C1490      F1503   1.382       .  S
C1492      C1497   1.521       .  S
C1492      C1493   1.402       .  A
C1493      C1494   1.403       .  A
C1493      H1498   1.082       .  S
C1494      C1495   1.421       .  A
C1495      C1499   1.519       .  S
C1495      C1496   1.406       .  A
C1496      H1500   1.083       .  S
C1497      F1510   1.384       .  S
C1497      F1511   1.382       .  S
C1497      F1512   1.382       .  S
C1499      F1507   1.382       .  S
C1499      F1508   1.384       .  S
C1499      F1509   1.385       .  S
C1513      C1514   1.402       .  A
C1513      C1518   1.408       .  A
C1513      H1523   1.083       .  S
C1514      C1519   1.489   1_545  S
C1514      C1515   1.415       .  A
C1515      C1520   1.517       .  S
C1515      C1516   1.410       .  A
C1516      C1517   1.405       .  A
C1516      H1521   1.083       .  S
C1517      C1518   1.420       .  A
C1518      C1522   1.519       .  S
C1519      C1524   1.416       .  A
C1519      C1528   1.404       .  A
C1520      F1536   1.382       .  S
C1520      F1537   1.382       .  S
C1520      F1538   1.385       .  S
C1522      F1533   1.385       .  S
C1522      F1534   1.383       .  S
C1522      F1535   1.381       .  S
C1524      C1529   1.522       .  S
C1524      C1525   1.404       .  A
C1525      C1526   1.407       .  A
C1525      H1530   1.083       .  S
C1526      C1527   1.421       .  A
C1527      C1531   1.517       .  S
C1527      C1528   1.414       .  A
C1528      H1532   1.083       .  S
C1529      F1542   1.385       .  S
C1529      F1543   1.382   1_565  S
C1529      F1544   1.381   1_565  S
C1531      F1539   1.385       .  S
C1531      F1540   1.383       .  S
C1531      F1541   1.382       .  S
C1545      C1546   1.399       .  A
C1545      C1550   1.406       .  A
C1545      H1555   1.083       .  S
C1546      C1551   1.476       .  S
C1546      C1547   1.413       .  A
C1547      C1552   1.521       .  S
C1547      C1548   1.403       .  A
C1548      C1549   1.405       .  A
C1548      H1553   1.083       .  S
C1549      C1550   1.422       .  A
C1550      C1554   1.520       .  S
C1551      C1556   1.411       .  A
C1551      C1560   1.399       .  A
C1552      F1568   1.383       .  S
C1552      F1569   1.382       .  S
C1552      F1570   1.384       .  S
C1554      F1565   1.384       .  S
C1554      F1566   1.384       .  S
C1554      F1567   1.383       .  S
C1556      C1561   1.521       .  S
C1556      C1557   1.404       .  A
C1557      C1558   1.408       .  A
C1557      H1562   1.082       .  S
C1558      C1559   1.421       .  A
C1559      C1563   1.518       .  S
C1559      C1560   1.406       .  A
C1560      H1564   1.083       .  S
C1561      F1574   1.384       .  S
C1561      F1575   1.383       .  S
C1561      F1576   1.382       .  S
C1563      F1571   1.384       .  S
C1563      F1572   1.382       .  S
C1563      F1573   1.385       .  S
C1577      C1578   1.400       .  A
C1577      C1582   1.413       .  A
C1577      H1587   1.083       .  S
C1578      C1583   1.495       .  S
C1578      C1579   1.415       .  A
C1579      C1584   1.520       .  S
C1579      C1580   1.411       .  A
C1580      C1581   1.410       .  A
C1580      H1585   1.082       .  S
C1581      C1582   1.430       .  A
C1582      C1586   1.520       .  S
C1583      C1588   1.416       .  A
C1583      C1592   1.402       .  A
C1584      F1600   1.382       .  S
C1584      F1601   1.383       .  S
C1584      F1602   1.384       .  S
C1586      F1597   1.385       .  S
C1586      F1598   1.383       .  S
C1586      F1599   1.383       .  S
C1588      C1593   1.519       .  S
C1588      C1589   1.409       .  A
C1589      C1590   1.406       .  A
C1589      H1594   1.083       .  S
C1590      C1591   1.427       .  A
C1591      C1595   1.521       .  S
C1591      C1592   1.414       .  A
C1592      H1596   1.083       .  S
C1593      F1606   1.384       .  S
C1593      F1607   1.382       .  S
C1593      F1608   1.382       .  S
C1595      F1603   1.385       .  S
C1595      F1604   1.383       .  S
C1595      F1605   1.383       .  S
C1609      C1610   1.403       .  A
C1609      C1614   1.411       .  A
C1609      H1619   1.084       .  S
C1610      C1615   1.497       .  S
C1610      C1611   1.418       .  A
C1611      C1616   1.520       .  S
C1611      C1612   1.410       .  A
C1612      C1613   1.408       .  A
C1612      H1617   1.080       .  S
C1613      C1614   1.423       .  A
C1614      C1618   1.517       .  S
C1615      C1620   1.412       .  A
C1615      C1624   1.394       .  A
C1616      F1632   1.382       .  S
C1616      F1633   1.383       .  S
C1616      F1634   1.385       .  S
C1618      F1629   1.385       .  S
C1618      F1630   1.382       .  S
C1618      F1631   1.383       .  S
C1620      C1625   1.519       .  S
C1620      C1621   1.415       .  A
C1621      C1622   1.418       .  A
C1621      H1626   1.070       .  S
C1622      C1623   1.443       .  A
C1623      C1627   1.531       .  S
C1623      C1624   1.409       .  A
C1624      H1628   1.085       .  S
C1625      F1638   1.384       .  S
C1625      F1639   1.382       .  S
C1625      F1640   1.382       .  S
C1627      F1635   1.384       .  S
C1627      F1636   1.373       .  S
C1627      F1637   1.384       .  S
C1641      C1642   1.402       .  A
C1641      C1646   1.399       .  A
C1641      H1651   1.084       .  S
C1642      C1647   1.495       .  S
C1642      C1643   1.422       .  A
C1643      C1648   1.514       .  S
C1643      C1644   1.415       .  A
C1644      C1645   1.405       .  A
C1644      H1649   1.083       .  S
C1645      C1646   1.417       .  A
C1646      C1650   1.516       .  S
C1647      C1652   1.421       .  A
C1647      C1656   1.408       .  A
C1648      F1664   1.383       .  S
C1648      F1665   1.383       .  S
C1648      F1666   1.382       .  S
C1650      F1661   1.382       .  S
C1650      F1662   1.384       .  S
C1650      F1663   1.383       .  S
C1652      C1657   1.524       .  S
C1652      C1653   1.407       .  A
C1653      C1654   1.406       .  A
C1653      H1658   1.083       .  S
C1654      C1655   1.417       .  A
C1655      C1659   1.516       .  S
C1655      C1656   1.414       .  A
C1656      H1660   1.083       .  S
C1657      F1670   1.384       .  S
C1657      F1671   1.384       .  S
C1657      F1672   1.378       .  S
C1659      F1667   1.382       .  S
C1659      F1668   1.381       .  S
C1659      F1669   1.385       .  S
C1673      C1674   1.393       .  A
C1673      C1678   1.408       .  A
C1673      H1683   1.085       .  S
C1674      C1679   1.497       .  S
C1674      C1675   1.413       .  A
C1675      C1680   1.519       .  S
C1675      C1676   1.418       .  A
C1676      C1677   1.418       .  A
C1676      H1681   1.074       .  S
C1677      C1678   1.443       .  A
C1678      C1682   1.529       .  S
C1679      C1684   1.418       .  A
C1679      C1688   1.408       .  A
C1680      F1696   1.382       .  S
C1680      F1697   1.381       .  S
C1680      F1698   1.385       .  S
C1682      F1693   1.384       .  S
C1682      F1694   1.384       .  S
C1682      F1695   1.374       .  S
C1684      C1689   1.521       .  S
C1684      C1685   1.407       .  A
C1685      C1686   1.404       .  A
C1685      H1690   1.083       .  S
C1686      C1687   1.420       .  A
C1687      C1691   1.518       .  S
C1687      C1688   1.415       .  A
C1688      H1692   1.084       .  S
C1689      F1702   1.385       .  S
C1689      F1703   1.382       .  S
C1689      F1704   1.381       .  S
C1691      F1699   1.383       .  S
C1691      F1700   1.382       .  S
C1691      F1701   1.384       .  S
C1705      C1706   1.403       .  A
C1705      C1710   1.400       .  A
C1705      H1715   1.084       .  S
C1706      C1711   1.499       .  S
C1706      C1707   1.425       .  A
C1707      C1712   1.515       .  S
C1707      C1708   1.415       .  A
C1708      C1709   1.403       .  A
C1708      H1713   1.084       .  S
C1709      C1710   1.416       .  A
C1710      C1714   1.514       .  S
C1711      C1716   1.421       .  A
C1711      C1720   1.410       .  A
C1712      F1728   1.383       .  S
C1712      F1729   1.382       .  S
C1712      F1730   1.383       .  S
C1714      F1725   1.382       .  S
C1714      F1726   1.384       .  S
C1714      F1727   1.381       .  S
C1716      C1721   1.522       .  S
C1716      C1717   1.406       .  A
C1717      C1718   1.404       .  A
C1717      H1722   1.083       .  S
C1718      C1719   1.417       .  A
C1719      C1723   1.517       .  S
C1719      C1720   1.415       .  A
C1720      H1724   1.083       .  S
C1721      F1734   1.385       .  S
C1721      F1735   1.383       .  S
C1721      F1736   1.377       .  S
C1723      F1731   1.383       .  S
C1723      F1732   1.381       .  S
C1723      F1733   1.385       .  S
C1737      C1738   1.403       .  A
C1737      C1742   1.411       .  A
C1737      H1747   1.084       .  S
C1738      C1743   1.487       .  S
C1738      C1739   1.414       .  A
C1739      C1744   1.520       .  S
C1739      C1740   1.405       .  A
C1740      C1741   1.412       .  A
C1740      H1745   1.083       .  S
C1741      C1742   1.426       .  A
C1742      C1746   1.516       .  S
C1743      C1748   1.416       .  A
C1743      C1752   1.397       .  A
C1744      F1760   1.381       .  S
C1744      F1761   1.381       .  S
C1744      F1762   1.384       .  S
C1746      F1757   1.385       .  S
C1746      F1758   1.383       .  S
C1746      F1759   1.382       .  S
C1748      C1753   1.517       .  S
C1748      C1749   1.414       .  A
C1749      C1750   1.407       .  A
C1749      H1754   1.083       .  S
C1750      C1751   1.426       .  A
C1751      C1755   1.520       .  S
C1751      C1752   1.401       .  A
C1752      H1756   1.085       .  S
C1753      F1766   1.385       .  S
C1753      F1767   1.383       .  S
C1753      F1768   1.381       .  S
C1755      F1763   1.383       .  S
C1755      F1764   1.373       .  S
C1755      F1765   1.383       .  S
C1769      C1770   1.405       .  A
C1769      C1774   1.415       .  A
C1769      H1779   1.083       .  S
C1770      C1775   1.498       .  S
C1770      C1771   1.416       .  A
C1771      C1776   1.521       .  S
C1771      C1772   1.408       .  A
C1772      C1773   1.409       .  A
C1772      H1777   1.080       .  S
C1773      C1774   1.424       .  A
C1774      C1778   1.517       .  S
C1775      C1780   1.413       .  A
C1775      C1784   1.396       .  A
C1776      F1792   1.382       .  S
C1776      F1793   1.382       .  S
C1776      F1794   1.383       .  S
C1778      F1789   1.384       .  S
C1778      F1790   1.382       .  S
C1778      F1791   1.384       .  S
C1780      C1785   1.518       .  S
C1780      C1781   1.417       .  A
C1781      C1782   1.419       .  A
C1781      H1786   1.043       .  S
C1782      C1783   1.441       .  A
C1783      C1787   1.529       .  S
C1783      C1784   1.409       .  A
C1784      H1788   1.077       .  S
C1785      F1798   1.385       .  S
C1785      F1799   1.382       .  S
C1785      F1800   1.382       .  S
C1787      F1795   1.384       .  S
C1787      F1796   1.374       .  S
C1787      F1797   1.384       .  S
C1801      C1802   1.407       .  A
C1801      C1806   1.414       .  A
C1801      H1811   1.083       .  S
C1802      C1807   1.491       .  S
C1802      C1803   1.418       .  A
C1803      C1808   1.521       .  S
C1803      C1804   1.406       .  A
C1804      C1805   1.406       .  A
C1804      H1809   1.084       .  S
C1805      C1806   1.416       .  A
C1806      C1810   1.515       .  S
C1807      C1812   1.422       .  A
C1807      C1816   1.400       .  A
C1808      F1824   1.383       .  S
C1808      F1825   1.378       .  S
C1808      F1826   1.385       .  S
C1810      F1821   1.385       .  S
C1810      F1822   1.382       .  S
C1810      F1823   1.382       .  S
C1812      C1817   1.516       .  S
C1812      C1813   1.415       .  A
C1813      C1814   1.405       .  A
C1813      H1818   1.084       .  S
C1814      C1815   1.421       .  A
C1815      C1819   1.518       .  S
C1815      C1816   1.397       .  A
C1816      H1820   1.085       .  S
C1817      F1830   1.383       .  S
C1817      F1831   1.383       .  S
C1817      F1832   1.382       .  S
C1819      F1827   1.384       .  S
C1819      F1828   1.381       .  S
C1819      F1829   1.384       .  S
C1833      C1834   1.400       .  A
C1833      C1838   1.399       .  A
C1833      H1843   1.084       .  S
C1834      C1839   1.486       .  S
C1834      C1835   1.413       .  A
C1835      C1840   1.516       .  S
C1835      C1836   1.415       .  A
C1836      C1837   1.406       .  A
C1836      H1841   1.082       .  S
C1837      C1838   1.420       .  A
C1838      C1842   1.518       .  S
C1839      C1844   1.419       .  A
C1839      C1848   1.404       .  A
C1840      F1856   1.383       .  S
C1840      F1857   1.380       .  S
C1840      F1858   1.384       .  S
C1842      F1853   1.383       .  S
C1842      F1854   1.384       .  S
C1842      F1855   1.382       .  S
C1844      C1849   1.527       .  S
C1844      C1845   1.404       .  A
C1845      C1846   1.408       .  A
C1845      H1850   1.083       .  S
C1846      C1847   1.418       .  A
C1847      C1851   1.515       .  S
C1847      C1848   1.413       .  A
C1848      H1852   1.083       .  S
C1849      F1862   1.385       .  S
C1849      F1863   1.383       .  S
C1849      F1864   1.379       .  S
C1851      F1859   1.382       .  S
C1851      F1860   1.381       .  S
C1851      F1861   1.384       .  S
C1865      C1866   1.396       .  A
C1865      C1870   1.414       .  A
C1865      H1875   1.083       .  S
C1866      C1871   1.497       .  S
C1866      C1867   1.411       .  A
C1867      C1872   1.521       .  S
C1867      C1868   1.414       .  A
C1868      C1869   1.419       .  A
C1868      H1873   1.072       .  S
C1869      C1870   1.445       .  A
C1870      C1874   1.534       .  S
C1871      C1876   1.416       .  A
C1871      C1880   1.403       .  A
C1872      F1888   1.382       .  S
C1872      F1889   1.382       .  S
C1872      F1890   1.384       .  S
C1874      F1885   1.385       .  S
C1874      F1886   1.379       .  S
C1874      F1887   1.377       .  S
C1876      C1881   1.520       .  S
C1876      C1877   1.411       .  A
C1877      C1878   1.408       .  A
C1877      H1882   1.080       .  S
C1878      C1879   1.425       .  A
C1879      C1883   1.519       .  S
C1879      C1880   1.411       .  A
C1880      H1884   1.084       .  S
C1881      F1894   1.385       .  S
C1881      F1895   1.382       .  S
C1881      F1896   1.382       .  S
C1883      F1891   1.383       .  S
C1883      F1892   1.382       .  S
C1883      F1893   1.384       .  S
C1897      C1898   1.404       .  A
C1897      C1902   1.410       .  A
C1897      H1907   1.083       .  S
C1898      C1903   1.481       .  S
C1898      C1899   1.416       .  A
C1899      C1904   1.522       .  S
C1899      C1900   1.403       .  A
C1900      C1901   1.403       .  A
C1900      H1905   1.083       .  S
C1901      C1902   1.414       .  A
C1902      C1906   1.514       .  S
C1903      C1908   1.410       .  A
C1903      C1912   1.393       .  A
C1904      F1920   1.382       .  S
C1904      F1921   1.381       .  S
C1904      F1922   1.385       .  S
C1906      F1917   1.385       .  S
C1906      F1918   1.381       .  S
C1906      F1919   1.383       .  S
C1908      C1913   1.518       .  S
C1908      C1909   1.408       .  A
C1909      C1910   1.413       .  A
C1909      H1914   1.077       .  S
C1910      C1911   1.440       .  A
C1911      C1915   1.528       .  S
C1911      C1912   1.402       .  A
C1912      H1916   1.085       .  S
C1913      F1926   1.385       .  S
C1913      F1927   1.382       .  S
C1913      F1928   1.382       .  S
C1915      F1923   1.385       .  S
C1915      F1924   1.375       .  S
C1915      F1925   1.384       .  S
C1929      C1930   1.392       .  A
C1929      C1934   1.401       .  A
C1929      H1939   1.086       .  S
C1930      C1935   1.481       .  S
C1930      C1931   1.409       .  A
C1931      C1936   1.519       .  S
C1931      C1932   1.411       .  A
C1932      C1933   1.416       .  A
C1932      H1937   1.077       .  S
C1933      C1934   1.439       .  A
C1934      C1938   1.527       .  S
C1935      C1940   1.414       .  A
C1935      C1944   1.402       .  A
C1936      F1952   1.383       .  S
C1936      F1953   1.383       .  S
C1936      F1954   1.384       .  S
C1938      F1949   1.384       .  S
C1938      F1950   1.384       .  S
C1938      F1951   1.376       .  S
C1940      C1945   1.523       .  S
C1940      C1941   1.400       .  A
C1941      C1942   1.412       .  A
C1941      H1946   1.083       .  S
C1942      C1943   1.424       .  A
C1943      C1947   1.515       .  S
C1943      C1944   1.409       .  A
C1944      H1948   1.084       .  S
C1945      F1958   1.385       .  S
C1945      F1959   1.382       .  S
C1945      F1960   1.382       .  S
C1947      F1955   1.383       .  S
C1947      F1956   1.383       .  S
C1947      F1957   1.385       .  S
C1961      C1962   1.398       .  A
C1961      C1966   1.402       .  A
C1961      H1971   1.085       .  S
C1962      C1967   1.487       .  S
C1962      C1963   1.417       .  A
C1963      C1968   1.518       .  S
C1963      C1964   1.414       .  A
C1964      C1965   1.405       .  A
C1964      H1969   1.083       .  S
C1965      C1966   1.420       .  A
C1966      C1970   1.514       .  S
C1967      C1972   1.413       .  A
C1967      C1976   1.401       .  A
C1968      F1984   1.383       .  S
C1968      F1985   1.382       .  S
C1968      F1986   1.385       .  S
C1970      F1981   1.383       .  S
C1970      F1982   1.385       .  S
C1970      F1983   1.381       .  S
C1972      C1977   1.527       .  S
C1972      C1973   1.404       .  A
C1973      C1974   1.416       .  A
C1973      H1978   1.079       .  S
C1974      C1975   1.431       .  A
C1975      C1979   1.518       .  S
C1975      C1976   1.415       .  A
C1976      H1980   1.084       .  S
C1977      F1990   1.384       .  S
C1977      F1991   1.383       .  S
C1977      F1992   1.381       .  S
C1979      F1987   1.383       .  S
C1979      F1988   1.380       .  S
C1979      F1989   1.385       .  S
