geometry optimzed in LAMMPS
_audit_creation_date              2020-11-30 
_audit_creation_method            'lammps2cif' 
_symmetry_space_group_name_H-M    'P1' 
_symmetry_Int_Tables_number       1 
_symmetry_cell_setting            triclinic 
loop_ 
_symmetry_equiv_pos_as_xyz 
  x,y,z 
_cell_length_a                    30.88835387 
_cell_length_b                    41.0179962938663 
_cell_length_c                    30.796614174495964 
_cell_angle_alpha                 89.89703609198867 
_cell_angle_beta                  89.79278821781503 
_cell_angle_gamma                 90.01376580898257 
loop_ 
_atom_site_label 
_atom_site_type_symbol 
_atom_site_fract_x 
_atom_site_fract_y 
_atom_site_fract_z 
_atom_site_charge 
O1          O  0.40485750  0.45477384  0.57965135    -0.75400
O2          O  0.44389384  0.41625808  0.54363935    -0.54300
C3          C  0.41420893  0.42488823  0.57061587     0.78400
O4          O  0.41223115  0.56361571  0.40860600    -0.60000
O5          O  0.44921683  0.60161182  0.44735378    -0.53000
C6          C  0.42144156  0.59335184  0.41834569     0.70400
O7          O  0.40431347  0.45337856  0.41507437    -0.74500
O8          O  0.44352414  0.41563486  0.45236052    -0.55100
C9          C  0.41340776  0.42374215  0.42579085     0.76400
O10         O  0.40750606  0.56549038  0.57913770    -0.59700
O11         O  0.44933624  0.60284127  0.54352490    -0.52800
C12         C  0.41921437  0.59499361  0.57055439     0.73000
Zr13       Zr  0.42832074  0.50975603  0.55913455     2.54700
O14         O  0.34972870  0.51104829  0.55376432    -0.80200
O15         O  0.42858149  0.50915148  0.63823168    -0.93600
Zr16       Zr  0.43188824  0.50834103  0.42998601     2.64700
O17         O  0.35363086  0.50910188  0.42055000    -0.98600
O18         O  0.44217539  0.50568175  0.35155362    -0.80700
O19         O  0.42849355  0.47770254  0.49519726    -0.84000
O20         O  0.42990810  0.54062327  0.49409799    -2.18700
O21         O  0.57624510  0.56256737  0.58700976    -0.67400
O22         O  0.54164012  0.60100896  0.54688134    -0.52000
C23         C  0.56782556  0.59247251  0.57737532     0.71400
O24         O  0.58159183  0.45195914  0.41486805    -0.60300
O25         O  0.54072458  0.41443319  0.45118304    -0.52300
C26         C  0.57103431  0.42243115  0.42449254     0.73200
O27         O  0.58380731  0.56225878  0.41249804    -0.71700
O28         O  0.54660150  0.60079283  0.45067852    -0.50400
C29         C  0.57566525  0.59205048  0.42301043     0.74600
O30         O  0.57877174  0.45285701  0.58057931    -0.67000
O31         O  0.53761796  0.41478686  0.54602026    -0.54200
C32         C  0.56740000  0.42329047  0.57268155     0.72900
Zr33       Zr  0.55719278  0.50816305  0.56155862     2.77500
O34         O  0.63604977  0.51076005  0.56175193    -0.97800
O35         O  0.55619180  0.50551172  0.64047871    -0.78600
Zr36       Zr  0.55960543  0.50747165  0.43257323     2.70100
O37         O  0.63837756  0.50691281  0.43112591    -0.79900
O38         O  0.55644216  0.50542135  0.35360755    -0.98900
Zr39       Zr  0.49299652  0.44614891  0.49712082     2.21500
Zr40       Zr  0.49580663  0.57115873  0.49602815     2.11100
O41         O  0.56030484  0.53930512  0.49689430    -2.47600
O42         O  0.55906351  0.47618520  0.49750223    -0.79600
O43         O  0.49340746  0.54038118  0.56144750    -0.71800
O44         O  0.49521567  0.47592678  0.43061730    -2.32800
O45         O  0.49208859  0.47756655  0.56208616    -2.29000
O46         O  0.49629866  0.54008208  0.43038375    -0.73600
H47         H  0.40506125  0.55491205  0.49340864     0.78400
H48         H  0.49544028  0.46138183  0.40595996     0.79500
H49         H  0.58566264  0.55307132  0.49746492     0.81700
H50         H  0.49130492  0.46365245  0.58739746     0.79300
H51         H  0.45137637  0.48299218  0.34566218     0.42400
H52         H  0.54195545  0.52596428  0.34504110     0.41300
H53         H  0.64674519  0.49981509  0.46066164     0.41000
H54         H  0.64574416  0.48876732  0.55279565     0.38900
H55         H  0.58588000  0.49867321  0.64841633     0.42100
H56         H  0.42749010  0.53231644  0.64710817     0.36900
H57         H  0.34394075  0.51118044  0.52216297     0.43000
H58         H  0.34318081  0.52650247  0.44019097     0.39400
H59         H  0.64375681  0.52500525  0.53693212     0.44300
H60         H  0.45820055  0.50204491  0.64596657     0.43000
H61         H  0.34915393  0.51791223  0.39094730     0.43200
H62         H  0.58686773  0.50821952  0.34406178     0.43500
O63         O  0.89811303  0.45680295  0.91521910    -0.75400
O64         O  0.93458612  0.41675267  0.95110919    -0.54300
C65         C  0.90605830  0.42666587  0.92372877     0.78400
O66         O  0.07769873  0.55963651  0.91454312    -0.60000
O67         O  0.04294564  0.59832151  0.95512575    -0.53000
C68         C  0.07050676  0.58943661  0.92599650     0.70400
O69         O  0.07217528  0.44823686  0.91563172    -0.74500
O70         O  0.03015744  0.41132582  0.95196714    -0.55100
C71         C  0.06039330  0.41875613  0.92491650     0.76400
O72         O  0.90178993  0.56583640  0.92285017    -0.59700
O73         O  0.94287787  0.60198067  0.96056502    -0.52800
C74         C  0.91203608  0.59505520  0.93411554     0.73000
Zr75       Zr  0.92328963  0.50997615  0.93935521     2.54700
O76         O  0.92124712  0.51206395  0.86034492    -0.80200
O77         O  0.84492455  0.51217458  0.94823749    -0.93600
Zr78       Zr  0.05180694  0.50473597  0.93430064     2.64700
O79         O  0.04511727  0.50371282  0.85555566    -0.98600
O80         O  0.13045809  0.50263015  0.93045475    -0.80700
O81         O  0.98521943  0.47575694  0.93487579    -0.84000
O82         O  0.98963233  0.53909636  0.93614949    -2.18700
O83         O  0.90826913  0.56222863  0.09012787    -0.67400
O84         O  0.94973211  0.59958018  0.05400779    -0.52000
C85         C  0.92045620  0.59160600  0.08190301     0.71400
O86         O  0.07021721  0.44651652  0.08544892    -0.60300
O87         O  0.03056689  0.41047059  0.04530096    -0.52300
C88         C  0.05866452  0.41745456  0.07451263     0.73200
O89         O  0.07945412  0.55763639  0.08518019    -0.71700
O90         O  0.04290290  0.59738705  0.04904186    -0.50400
C91         C  0.07123234  0.58783820  0.07671488     0.74600
O92         O  0.90357581  0.45301687  0.08955141    -0.67000
O93         O  0.93612254  0.41441636  0.04784942    -0.54200
C94         C  0.91023350  0.42318092  0.07851237     0.72900
Zr95       Zr  0.92794198  0.50722461  0.06836451     2.77500
O96         O  0.93998154  0.50635451  0.14644387    -0.97800
O97         O  0.84980551  0.50926145  0.07852820    -0.78600
Zr98       Zr  0.05565709  0.50295265  0.06327458     2.70100
O99         O  0.05980657  0.50214981  0.14220384    -0.79900
O100        O  0.13393303  0.49885887  0.05485959    -0.98900
Zr101      Zr  0.98483791  0.44375424  0.99949638     2.21500
Zr102      Zr  0.99321099  0.56887679  0.00248007     2.11100
O103        O  0.99366993  0.53681480  0.06728182    -2.47600
O104        O  0.98972130  0.47324762  0.06580125    -0.79600
O105        O  0.92648010  0.54004948  0.00477557    -0.71800
O106        O  0.05212118  0.47239920  0.99824818    -2.32800
O107        O  0.92183563  0.47718163  0.00287909    -2.29000
O108        O  0.05639928  0.53548724  0.99945099    -0.73600
H109        H  0.98968688  0.55368578  0.91148640     0.78400
H110        H  0.07627744  0.45744827  0.99766696     0.79500
H111        H  0.99520884  0.55037584  0.09283958     0.81700
H112        H  0.89571733  0.46419623  0.00337756     0.79300
H113        H  0.14022138  0.51425909  0.95681107     0.42400
H114        H  0.14575201  0.50707943  0.08260127     0.41300
H115        H  0.08937710  0.50993945  0.14888215     0.41000
H116        H  0.91148494  0.50044957  0.15902326     0.38900
H117        H  0.83804973  0.51119785  0.04877910     0.42100
H118        H  0.83365387  0.51557516  0.91851836     0.36900
H119        H  0.93890266  0.53133450  0.85239870     0.43000
H120        H  0.03801855  0.52642949  0.84732263     0.39400
H121        H  0.95831085  0.48691502  0.15145363     0.44300
H122        H  0.83921105  0.53302073  0.96339196     0.43000
H123        H  0.07509175  0.50043926  0.84491656     0.43200
H124        H  0.14030232  0.47520376  0.05523934     0.43500
C125        C  0.74274232  0.25887924  0.74470459    -0.02500
O126        O  0.57456704  0.06662938  0.91422691    -0.75400
O127        O  0.53821338  0.10585988  0.95159250    -0.54300
C128        C  0.56528156  0.09659441  0.92223799     0.78400
O129        O  0.40490696  0.95686196  0.91823175    -0.60000
O130        O  0.44329135  0.91938156  0.95719793    -0.53000
C131        C  0.41463830  0.92729833  0.92889432     0.70400
O132        O  0.40730740  0.06764579  0.91366840    -0.74500
O133        O  0.44321686  0.10628617  0.95261064    -0.55100
C134        C  0.41552818  0.09752928  0.92373556     0.76400
O135        O  0.57647730  0.95754221  0.91987514    -0.59700
O136        O  0.53786888  0.91956919  0.95778056    -0.52800
C137        C  0.56658930  0.92792321  0.92941376     0.73000
Zr138      Zr  0.55582762  0.01246660  0.94019122     2.54700
O139        O  0.55724033  0.00977309  0.86121368    -0.80200
O140        O  0.63456891  0.01182416  0.94470135    -0.93600
Zr141      Zr  0.42814712  0.01251945  0.93602287     2.64700
O142        O  0.43745472  0.01019039  0.85745481    -0.98600
O143        O  0.34958519  0.01340660  0.93131265    -0.80700
O144        O  0.49218002  0.04445514  0.93647653    -0.84000
O145        O  0.49185969  0.98071821  0.93842432    -2.18700
O146        O  0.57393520  0.95924198  0.09087132    -0.67400
O147        O  0.53694442  0.92078771  0.05313700    -0.52000
C148        C  0.56485441  0.92937299  0.08181742     0.71400
O149        O  0.40033510  0.07001049  0.08311095    -0.60300
O150        O  0.44179861  0.10742721  0.04724990    -0.52300
C151        C  0.41129510  0.09948893  0.07388391     0.73200
O152        O  0.40282418  0.96120705  0.08946928    -0.71700
O153        O  0.44093366  0.92196785  0.05399194    -0.50400
C154        C  0.41261300  0.93128297  0.08220789     0.74600
O155        O  0.56967728  0.06823771  0.09288456    -0.67000
O156        O  0.53653133  0.10672997  0.05099386    -0.54200
C157        C  0.56134243  0.09789337  0.08245177     0.72900
Zr158      Zr  0.55224095  0.01383032  0.06836393     2.77500
O159        O  0.55031704  0.01440737  0.14744696    -0.97800
O160        O  0.63105776  0.01431947  0.06701807    -0.78600
Zr161      Zr  0.42410405  0.01505333  0.06481241     2.70100
O162        O  0.42749783  0.01925462  0.14355541    -0.79900
O163        O  0.34525502  0.01441068  0.06250567    -0.98900
Zr164      Zr  0.49069313  0.07648525  0.00098299     2.21500
Zr165      Zr  0.48956599  0.95063954  0.00465607     2.11100
O166        O  0.48771733  0.98281072  0.06898422    -2.47600
O167        O  0.48855573  0.04613323  0.06672379    -0.79600
O168        O  0.55493226  0.98132609  0.00508639    -0.71800
O169        O  0.42555213  0.04524150  0.99940880    -2.32800
O170        O  0.55579645  0.04519530  0.00355963    -2.29000
O171        O  0.42467072  0.98205169  0.00155768    -0.73600
H172        H  0.49252716  0.96622961  0.91373420     0.78400
H173        H  0.40039209  0.05915664  0.99833368     0.79500
H174        H  0.48702775  0.96932721  0.09473201     0.81700
H175        H  0.58091733  0.05922117  0.00376527     0.79300
H176        H  0.33967921  0.01236332  0.96189438     0.42400
H177        H  0.33738171  0.99200134  0.05361454     0.41300
H178        H  0.45137718  0.03480975  0.14906779     0.41000
H179        H  0.53373786  0.99469748  0.15579207     0.38900
H180        H  0.63889305  0.03140103  0.04564962     0.42100
H181        H  0.64321551  0.03501872  0.94655937     0.36900
H182        H  0.54004435  0.02877505  0.85147285     0.43000
H183        H  0.45710530  0.02856124  0.85052537     0.39400
H184        H  0.58045127  0.00962432  0.15627711     0.44300
H185        H  0.64429444  0.00484312  0.91548667     0.43000
H186        H  0.45508221  0.99043976  0.85207514     0.43200
H187        H  0.33617216  0.01582520  0.09331198     0.43500
C188        C  0.25200225  0.75538343  0.75562383    -0.02500
O189        O  0.91449221  0.05985359  0.42042942    -0.75400
O190        O  0.95093892  0.09830548  0.45887122    -0.54300
C191        C  0.92310951  0.08963700  0.43009377     0.78400
O192        O  0.91636805  0.94992635  0.59669413    -0.60000
O193        O  0.95071583  0.91146636  0.55573959    -0.53000
C194        C  0.92521645  0.92016471  0.58686116     0.70400
O195        O  0.91180833  0.05978947  0.58988948    -0.74500
O196        O  0.95015888  0.09801504  0.55254031    -0.55100
C197        C  0.92111953  0.08959071  0.58034851     0.76400
O198        O  0.91502556  0.95096954  0.41807337    -0.59700
O199        O  0.95102219  0.91216247  0.45636469    -0.52800
C200        C  0.92374705  0.92107992  0.42709464     0.73000
Zr201      Zr  0.93556313  0.00508645  0.44166000     2.54700
O202        O  0.85693456  0.00790709  0.44636317    -0.80200
O203        O  0.93556465  0.00510674  0.36254375    -0.93600
Zr204      Zr  0.93289975  0.00447530  0.56972010     2.64700
O205        O  0.85451019  0.00202102  0.56146140    -0.98600
O206        O  0.92455484  0.00543093  0.64831914    -0.80700
O207        O  0.93311458  0.03661371  0.50575173    -0.84000
O208        O  0.93277617  0.97267121  0.50551045    -2.18700
O209        O  0.08117319  0.94945462  0.41853608    -0.67400
O210        O  0.04604232  0.91096915  0.45920145    -0.52000
C211        C  0.07260699  0.91971969  0.42911332     0.71400
O212        O  0.08561530  0.05946880  0.58894069    -0.60300
O213        O  0.04487421  0.09763278  0.55375642    -0.52300
C214        C  0.07481918  0.08913394  0.58022236     0.73200
O215        O  0.07899783  0.94850695  0.59631575    -0.71700
O216        O  0.04416139  0.91051939  0.55492613    -0.50400
C217        C  0.06994687  0.91885359  0.58569300     0.74600
O218        O  0.08502226  0.06036464  0.42065070    -0.67000
O219        O  0.04641815  0.09811466  0.45922121    -0.54200
C220        C  0.07464909  0.08996506  0.43046086     0.72900
Zr221      Zr  0.06430030  0.00478185  0.44302880     2.77500
O222        O  0.14284195  0.00274940  0.45030366    -0.97800
O223        O  0.06801794  0.00572220  0.36405676    -0.78600
Zr224      Zr  0.06148463  0.00409919  0.57185406     2.70100
O225        O  0.14014296  0.00167054  0.57591187    -0.79900
O226        O  0.05516155  0.00785175  0.65053017    -0.98900
Zr227      Zr  0.99846735  0.06718660  0.50623360     2.21500
Zr228      Zr  0.99799276  0.94155750  0.50635052     2.11100
O229        O  0.06359155  0.97259706  0.50730130    -2.47600
O230        O  0.06386841  0.03622390  0.50754027    -0.79600
O231        O  0.99973424  0.97336142  0.44147733    -0.71800
O232        O  0.99735254  0.03596591  0.57193727    -2.32800
O233        O  0.99996965  0.03635672  0.44085078    -2.29000
O234        O  0.99705330  0.97274050  0.57155193    -0.73600
H235        H  0.90771146  0.95859522  0.50516959     0.78400
H236        H  0.99705847  0.04997414  0.59713279     0.79500
H237        H  0.08855134  0.95841425  0.50770399     0.81700
H238        H  0.00025044  0.05042037  0.41565165     0.79300
H239        H  0.95454517  0.00494750  0.65952076     0.42400
H240        H  0.04297674  0.98659506  0.65973221     0.41300
H241        H  0.14632264  0.99521352  0.60625970     0.41000
H242        H  0.14793002  0.00229456  0.48201844     0.38900
H243        H  0.04040626  0.01585628  0.35493985     0.42100
H244        H  0.94750575  0.02659845  0.35400565     0.36900
H245        H  0.84633357  0.98810742  0.43148558     0.43000
H246        H  0.84456693  0.02489839  0.56372793     0.39400
H247        H  0.15135427  0.98073607  0.44028079     0.44300
H248        H  0.90457097  0.00623891  0.35457774     0.43000
H249        H  0.84974626  0.99624889  0.53068250     0.43200
H250        H  0.08538983  0.00752436  0.66110449     0.43500
C251        C  0.74476348  0.76077140  0.24760623    -0.02500
C252        C  0.23860268  0.26037429  0.25281787    -0.02500
C253        C  0.74575923  0.25429996  0.25738552    -0.02500
C254        C  0.24261021  0.75735702  0.24531941    -0.02500
C255        C  0.24234767  0.26041142  0.74717186    -0.02500
C256        C  0.73907185  0.75937568  0.75721245    -0.02500
C257        C  0.09750499  0.11542800  0.60343912    -0.19900
C258        C  0.14223167  0.11362178  0.61205540     0.36300
C259        C  0.16159413  0.13778600  0.63769133    -0.25900
C260        C  0.13725528  0.16391043  0.65415343     0.02700
C261        C  0.09281298  0.16623537  0.64447994     0.27500
C262        C  0.07345114  0.14210905  0.61877432    -0.25000
N263        N  0.16784816  0.08762527  0.59411863    -0.82400
H264        H  0.19594703  0.13650659  0.64453489     0.13300
C265        C  0.15932673  0.18889021  0.68071245     0.02700
N266        N  0.06740753  0.19261701  0.66167004    -0.81000
H267        H  0.03908740  0.14348734  0.61201953     0.18200
C268        C  0.16001601  0.22135280  0.66677015    -0.25800
C269        C  0.18443398  0.24493961  0.68878393     0.36200
C270        C  0.21132924  0.23575329  0.72407562    -0.19900
C271        C  0.20518005  0.20383860  0.74103865    -0.25100
C272        C  0.18042110  0.18034959  0.71937739     0.27600
H273        H  0.14211736  0.22838072  0.63803619     0.13300
N274        N  0.18216063  0.27805051  0.67451091    -0.82400
H275        H  0.21952307  0.19677832  0.77158738     0.18200
N276        N  0.17654429  0.14781593  0.73649634    -0.81000
H277        H  0.19051800  0.27904442  0.64162443     0.33800
H278        H  0.14997758  0.28567350  0.67739119     0.38300
H279        H  0.19430535  0.14533523  0.76515497     0.33800
H280        H  0.14405011  0.14409725  0.74475694     0.30500
H281        H  0.03529063  0.19083311  0.65131714     0.33800
H282        H  0.06691437  0.19016893  0.69547076     0.30500
H283        H  0.16744591  0.09018011  0.56032408     0.38300
H284        H  0.20016944  0.08984235  0.60364446     0.33800
C285        C  0.20917614  0.23514065  0.27807397    -0.19900
C286        C  0.20312286  0.20177299  0.26553059     0.36300
C287        C  0.17857564  0.18058691  0.29158616    -0.25900
C288        C  0.15688730  0.19149155  0.32860145     0.02700
C289        C  0.15783688  0.22490259  0.33862239     0.27500
C290        C  0.18276493  0.24628865  0.31274214    -0.25000
N291        N  0.21916168  0.18910198  0.22525096    -0.82400
H292        H  0.17609474  0.15515300  0.28239115     0.13300
C293        C  0.13320294  0.16729967  0.35590201     0.02700
N294        N  0.13339075  0.23701391  0.37496285    -0.81000
H295        H  0.18267112  0.27179127  0.32092234     0.18200
C296        C  0.14741798  0.16097887  0.39837849    -0.25800
C297        C  0.12873635  0.13582768  0.42351138     0.36200
C298        C  0.09534810  0.11666365  0.40564003    -0.19900
C299        C  0.08057787  0.12337750  0.36357357    -0.25100
C300        C  0.09906992  0.14855721  0.33853629     0.27600
H301        H  0.17393946  0.17514985  0.41146149     0.13300
N302        N  0.14453110  0.12890468  0.46639927    -0.82400
H303        H  0.05448979  0.10886606  0.35025560     0.18200
N304        N  0.08366234  0.15502985  0.29537825    -0.81000
H305        H  0.17007982  0.14453863  0.47420589     0.33800
H306        H  0.11956239  0.13391541  0.48839962     0.38300
H307        H  0.05862817  0.13900052  0.28733350     0.33800
H308        H  0.07036718  0.17846937  0.29528633     0.30500
H309        H  0.13763353  0.26218152  0.37821393     0.33800
H310        H  0.10060636  0.23325900  0.36826348     0.30500
H311        H  0.23870175  0.16890013  0.23195605     0.38300
H312        H  0.19284402  0.18106701  0.20688480     0.33800
C313        C  0.90402405  0.89422263  0.61316341    -0.19900
C314        C  0.89660117  0.89811715  0.65827685     0.36300
C315        C  0.87416832  0.87379587  0.68143968    -0.25900
C316        C  0.85894569  0.84574016  0.66060916     0.02700
C317        C  0.86689006  0.84147773  0.61588064     0.27500
C318        C  0.88962453  0.86565198  0.59263515    -0.25000
N319        N  0.91159807  0.92679988  0.68039806    -0.82400
H320        H  0.86756222  0.87702710  0.71575245     0.13300
C321        C  0.83069138  0.82283815  0.68503311     0.02700
N322        N  0.85088958  0.81294958  0.59415725    -0.81000
H323        H  0.89496336  0.86264380  0.55807562     0.18200
C324        C  0.78651416  0.82298177  0.67549783    -0.25800
C325        C  0.75710194  0.80329466  0.69831671     0.36200
C326        C  0.77167931  0.78146528  0.73104820    -0.19900
C327        C  0.81622146  0.78351692  0.74236259    -0.25100
C328        C  0.84580675  0.80294425  0.71923553     0.27600
H329        H  0.77445243  0.83914425  0.65041337     0.13300
N330        N  0.71211408  0.80597454  0.68816235    -0.82400
H331        H  0.82901101  0.77045169  0.76993562     0.18200
N332        N  0.89065135  0.80183571  0.73172920    -0.81000
H333        H  0.70258034  0.83008031  0.69367286     0.33800
H334        H  0.70813664  0.80107007  0.65511169     0.38300
H335        H  0.90143901  0.77789758  0.72733233     0.33800
H336        H  0.90992959  0.81633612  0.71161558     0.30500
H337        H  0.85880400  0.81368844  0.56113133     0.33800
H338        H  0.86687750  0.79275500  0.60725453     0.30500
H339        H  0.94541624  0.92669872  0.67917772     0.38300
H340        H  0.90299445  0.92602330  0.71325758     0.33800
C341        C  0.21294106  0.77914708  0.27511828    -0.19900
C342        C  0.16702286  0.78330910  0.27103410     0.36300
C343        C  0.14504000  0.80527540  0.29799943    -0.25900
C344        C  0.16691685  0.82489207  0.32764868     0.02700
C345        C  0.21207109  0.82211183  0.33144986     0.27500
C346        C  0.23431294  0.79959244  0.30540548    -0.25000
N347        N  0.14215740  0.76768851  0.23788651    -0.82400
H348        H  0.11026787  0.80780094  0.29466038     0.13300
C349        C  0.14193899  0.84889541  0.35349646     0.02700
N350        N  0.23532899  0.84260857  0.36117064    -0.81000
H351        H  0.26917598  0.79810332  0.30843019     0.18200
C352        C  0.14292382  0.84716865  0.39895788    -0.25800
C353        C  0.11982958  0.86945416  0.42438425     0.36200
C354        C  0.09493618  0.89402854  0.40409659    -0.19900
C355        C  0.09351607  0.89548001  0.35863328    -0.25100
C356        C  0.11679050  0.87319550  0.33305188     0.27600
H357        H  0.16200523  0.82845481  0.41478217     0.13300
N358        N  0.12383406  0.86746671  0.47058607    -0.82400
H359        H  0.07450982  0.91435553  0.34306285     0.18200
N360        N  0.11554888  0.87543979  0.28646483    -0.81000
H361        H  0.09317940  0.86346300  0.48401092     0.33800
H362        H  0.13562437  0.88980248  0.48178515     0.38300
H363        H  0.09516538  0.89440310  0.27665309     0.33800
H364        H  0.14668532  0.88146725  0.27570944     0.30500
H365        H  0.26844015  0.83733559  0.36033422     0.33800
H366        H  0.23196610  0.86668713  0.35050970     0.30500
H367        H  0.11751980  0.75421516  0.25288243     0.38300
H368        H  0.12755827  0.78561799  0.21871196     0.33800
C369        C  0.77408342  0.78370301  0.27604154    -0.19900
C370        C  0.75540315  0.80539809  0.30699405     0.36300
C371        C  0.78169539  0.82592348  0.33189728    -0.25900
C372        C  0.82657585  0.82685331  0.32592890     0.02700
C373        C  0.84574504  0.80678343  0.29440182     0.27500
C374        C  0.81964442  0.78573036  0.26987834    -0.25000
N375        N  0.70949286  0.80658521  0.31359777    -0.82400
H376        H  0.76673481  0.84175174  0.35577572     0.13300
C377        C  0.85251034  0.85073188  0.35091800     0.02700
N378        N  0.89159007  0.80862507  0.28639211    -0.81000
H379        H  0.83553906  0.77237114  0.24428762     0.18200
C380        C  0.88585746  0.83997645  0.37820967    -0.25800
C381        C  0.90983907  0.86209596  0.40352829     0.36200
C382        C  0.89997231  0.89584828  0.40156257    -0.19900
C383        C  0.86683148  0.90629770  0.37334198    -0.25100
C384        C  0.84359568  0.88425315  0.34771151     0.27600
H385        H  0.89276057  0.81411762  0.38019119     0.13300
N386        N  0.94425648  0.85025077  0.43059677    -0.82400
H387        H  0.85893405  0.93194950  0.37080800     0.18200
N388        N  0.81116773  0.89577711  0.31798075    -0.81000
H389        H  0.94949999  0.82539055  0.42529635     0.33800
H390        H  0.93395197  0.85236587  0.46284231     0.38300
H391        H  0.80839175  0.92115091  0.31948846     0.33800
H392        H  0.82168975  0.89020621  0.28654222     0.30500
H393        H  0.90089174  0.79211705  0.26227224     0.33800
H394        H  0.89832234  0.83192462  0.27430094     0.30500
H395        H  0.69905445  0.83036311  0.30723094     0.38300
H396        H  0.70302466  0.80146903  0.34626016     0.33800
C397        C  0.89904453  0.11502878  0.40540398    -0.19900
C398        C  0.89207968  0.14696933  0.42138169     0.36300
C399        C  0.86766171  0.16919841  0.39656493    -0.25900
C400        C  0.84964233  0.16000268  0.35671179     0.02700
C401        C  0.85680904  0.12845110  0.34050513     0.27500
C402        C  0.88146823  0.10639510  0.36487157    -0.25000
N403        N  0.90885808  0.15658106  0.46289590    -0.82400
H404        H  0.86208521  0.19367154  0.40854959     0.13300
C405        C  0.82375274  0.18375972  0.33173699     0.02700
N406        N  0.83962513  0.11912079  0.29898429    -0.81000
H407        H  0.88696920  0.08220072  0.35192509     0.18200
C408        C  0.84456684  0.20379108  0.30157171    -0.25800
C409        C  0.82134880  0.22602176  0.27595039     0.36200
C410        C  0.77571737  0.23005609  0.28248297    -0.19900
C411        C  0.75517361  0.20782296  0.31119737    -0.25100
C412        C  0.77855364  0.18522763  0.33611025     0.27600
H413        H  0.87922653  0.20141123  0.29684546     0.13300
N414        N  0.84445781  0.24225055  0.24178919    -0.82400
H415        H  0.72038723  0.20896129  0.31536993     0.18200
N416        N  0.75661907  0.16426945  0.36653991    -0.81000
H417        H  0.87040623  0.25493167  0.25546452     0.33800
H418        H  0.85747574  0.22456573  0.22111862     0.38300
H419        H  0.72335561  0.16899520  0.36661729     0.33800
H420        H  0.76028660  0.14024240  0.35597646     0.30500
H421        H  0.84852916  0.09520004  0.29140298     0.33800
H422        H  0.80588063  0.11922407  0.30127417     0.30500
H423        H  0.89280775  0.14279174  0.48658145     0.38300
H424        H  0.90146641  0.18099013  0.46926491     0.33800
C425        C  0.21825698  0.77792772  0.73154340    -0.19900
C426        C  0.18974143  0.76603346  0.69886070     0.36300
C427        C  0.16235940  0.78760999  0.67606477    -0.25900
C428        C  0.16068020  0.82089307  0.68627262     0.02700
C429        C  0.18513413  0.83229691  0.72135787     0.27500
C430        C  0.21221464  0.81093307  0.74417561    -0.25000
N431        N  0.18879439  0.73212446  0.68801943    -0.82400
H432        H  0.14250191  0.77830836  0.64992671     0.13300
C433        C  0.13491691  0.84400570  0.65921198     0.02700
N434        N  0.18371611  0.86604570  0.73318380    -0.81000
H435        H  0.22853603  0.82105945  0.77198824     0.18200
C436        C  0.10088231  0.86192376  0.67805709    -0.25800
C437        C  0.07854024  0.88596811  0.65418482     0.36200
C438        C  0.09078093  0.89242975  0.61088205    -0.19900
C439        C  0.12390319  0.87399832  0.59171802    -0.25100
C440        C  0.14626743  0.84996691  0.61546320     0.27600
H441        H  0.09206461  0.85730790  0.71159670     0.13300
N442        N  0.04355197  0.90392303  0.67363610    -0.82400
H443        H  0.13331644  0.87915398  0.55857748     0.18200
N444        N  0.18133679  0.83225744  0.59574617    -0.81000
H445        H  0.03855053  0.89633216  0.70569230     0.33800
H446        H  0.01534611  0.89811603  0.65663117     0.38300
H447        H  0.18557416  0.83947506  0.56342745     0.33800
H448        H  0.20974445  0.83856395  0.61208085     0.30500
H449        H  0.17391404  0.86758389  0.76564491     0.33800
H450        H  0.21512084  0.87543047  0.73081511     0.30500
H451        H  0.19542912  0.72974331  0.65484995     0.38300
H452        H  0.15739599  0.72350501  0.69351169     0.33800
C453        C  0.58268609  0.12329034  0.10865799    -0.19900
C454        C  0.58836333  0.11916596  0.15390989     0.36300
C455        C  0.61207814  0.14234050  0.17719908    -0.25900
C456        C  0.63074630  0.16919465  0.15623978     0.02700
C457        C  0.62488455  0.17359198  0.11122569     0.27500
C458        C  0.60038482  0.15072289  0.08789014    -0.25000
N459        N  0.57060199  0.09122382  0.17594201    -0.82400
H460        H  0.61719482  0.13896710  0.21172114     0.13300
C461        C  0.65877701  0.19112641  0.18166575     0.02700
N462        N  0.64460181  0.20083681  0.08938222    -0.81000
H463        H  0.59648938  0.15362890  0.05314057     0.18200
C464        C  0.70297834  0.19232124  0.17203646    -0.25800
C465        C  0.73133699  0.21130637  0.19676716     0.36200
C466        C  0.71516482  0.23140522  0.23073651    -0.19900
C467        C  0.67088692  0.22749828  0.24221476    -0.27100
C468        C  0.64264524  0.20821873  0.21771856     0.27600
H469        H  0.71579853  0.17776943  0.14560681     0.13300
N470        N  0.77661219  0.21033084  0.18678236    -0.82400
H471        H  0.65771880  0.23883893  0.27097573     0.18200
N472        N  0.59768481  0.20561627  0.22961487    -0.81000
H473        H  0.78080198  0.21688395  0.15420338     0.33800
H474        H  0.78723367  0.18628688  0.19042920     0.38300
H475        H  0.59103094  0.21929715  0.25746931     0.33800
H476        H  0.57951044  0.21589775  0.20450804     0.30500
H477        H  0.63781106  0.20020560  0.05615509     0.33800
H478        H  0.63037796  0.22207056  0.10157778     0.30500
H479        H  0.53688587  0.09274857  0.17395513     0.38300
H480        H  0.57833938  0.09166787  0.20896792     0.33800
C481        C  0.27117587  0.24182261  0.22248597    -0.19900
C482        C  0.30198052  0.21979502  0.24074536     0.36300
C483        C  0.32825219  0.20058212  0.21386343    -0.25900
C484        C  0.32474087  0.20224605  0.16879249     0.02700
C485        C  0.29738625  0.22560970  0.14989728     0.27500
C486        C  0.27196281  0.24580927  0.17673684    -0.25000
N487        N  0.30496168  0.21536617  0.28678090    -0.82400
H488        H  0.34990027  0.18289693  0.22841118     0.13300
C489        C  0.34691685  0.17728742  0.14215413     0.02700
N490        N  0.29492703  0.22819881  0.10341879    -0.81000
H491        H  0.25284254  0.26443918  0.16123752     0.18200
C492        C  0.32293884  0.15049059  0.12760052    -0.25800
C493        C  0.34297266  0.12464822  0.10533706     0.36200
C494        C  0.38796437  0.12618427  0.09646922    -0.19900
C495        C  0.41161661  0.15354817  0.11023922    -0.25100
C496        C  0.39162696  0.17891836  0.13351931     0.27600
H497        H  0.28858372  0.14936609  0.13477971     0.13300
N498        N  0.31757921  0.09727217  0.09125246    -0.82400
H499        H  0.44610836  0.15471006  0.10383422     0.18200
N500        N  0.41657536  0.20603990  0.14905726    -0.81000
H501        H  0.28461223  0.10170965  0.09635197     0.33800
H502        H  0.32532236  0.07757150  0.11132686     0.38300
H503        H  0.44915327  0.20336822  0.14041890     0.33800
H504        H  0.40541414  0.22696837  0.13324317     0.30500
H505        H  0.27285156  0.24628152  0.09440613     0.33800
H506        H  0.32528783  0.23572184  0.09210945     0.30500
H507        H  0.29868449  0.19089281  0.29396650     0.38300
H508        H  0.33670943  0.22058987  0.29617519     0.33800
C509        C  0.27058517  0.78319440  0.22090744    -0.19900
C510        C  0.25107369  0.80747248  0.19427766     0.36300
C511        C  0.27670997  0.83047964  0.17277312    -0.25900
C512        C  0.32149241  0.83139028  0.17862510     0.02700
C513        C  0.34093951  0.81009352  0.20873641     0.27500
C514        C  0.31535251  0.78684842  0.22981169    -0.25000
N515        N  0.20508457  0.80907597  0.18900349    -0.82400
H516        H  0.26136424  0.84800648  0.15138972     0.13300
C517        C  0.34619145  0.85640448  0.15485255     0.02700
N518        N  0.38592484  0.81217033  0.22038967    -0.81000
H519        H  0.33130687  0.77218246  0.25408036     0.18200
C520        C  0.33837667  0.88911212  0.16440900    -0.25800
C521        C  0.36047351  0.91402453  0.14245540     0.36200
C522        C  0.38982393  0.90590329  0.10839024    -0.19900
C523        C  0.39758406  0.87274451  0.09931164    -0.25100
C524        C  0.37634099  0.84804962  0.12255180     0.27600
H525        H  0.31541918  0.89515666  0.18986566     0.13300
N526        N  0.35346581  0.94729526  0.15537736    -0.82400
H527        H  0.42021899  0.86577253  0.07403489     0.18200
N528        N  0.38525934  0.81450832  0.11324362    -0.81000
H529        H  0.32959623  0.94878927  0.17946784     0.33800
H530        H  0.38209981  0.95551761  0.16969136     0.38300
H531        H  0.37857496  0.81037378  0.08046266     0.33800
H532        H  0.41832727  0.81051250  0.11810269     0.30500
H533        H  0.40098883  0.79068982  0.21012123     0.33800
H534        H  0.40164462  0.83147940  0.20489636     0.30500
H535        H  0.19786401  0.80814235  0.15591376     0.38300
H536        H  0.19459058  0.83168851  0.20062501     0.33800
C537        C  0.71012060  0.78455656  0.78249668    -0.19900
C538        C  0.66517501  0.79078911  0.77469411     0.36300
C539        C  0.64262471  0.81346559  0.80031108    -0.25900
C540        C  0.66357932  0.83190708  0.83187602     0.02700
C541        C  0.70841687  0.82852485  0.83746203     0.27500
C542        C  0.73106312  0.80521449  0.81281662    -0.25000
N543        N  0.64229060  0.77634134  0.73924050    -0.82400
H544        H  0.60843959  0.81748050  0.79447395     0.13300
C545        C  0.63843033  0.85627003  0.85676588     0.02700
N546        N  0.73076331  0.84879491  0.86815210    -0.81000
H547        H  0.76560431  0.80274004  0.81773645     0.18200
C548        C  0.62144888  0.84797874  0.89761670    -0.25800
C549        C  0.59748743  0.87070652  0.92212753     0.36200
C550        C  0.59008775  0.90221312  0.90495123    -0.19900
C551        C  0.60668807  0.91004487  0.86357536    -0.25100
C552        C  0.63088602  0.88748394  0.83946171     0.27600
H553        H  0.62734916  0.82380036  0.91052858     0.13300
N554        N  0.58158151  0.86209290  0.96454997    -0.82400
H555        H  0.60084750  0.93398735  0.84987368     0.18200
N556        N  0.64764454  0.89603183  0.79732111    -0.81000
H557        H  0.58934098  0.83791603  0.97199030     0.33800
H558        H  0.59785604  0.87659864  0.98711733     0.38300
H559        H  0.63864242  0.91979852  0.78898037     0.33800
H560        H  0.68142288  0.89594468  0.79919926     0.30500
H561        H  0.76376728  0.84315953  0.86859348     0.33800
H562        H  0.72840511  0.87291455  0.85739719     0.30500
H563        H  0.61520551  0.76417514  0.75169958     0.38300
H564        H  0.63101663  0.79502237  0.71908526     0.33800
C565        C  0.27532247  0.24141135  0.77634107    -0.19900
C566        C  0.28587599  0.24873922  0.82025138     0.36300
C567        C  0.31166457  0.22699438  0.84431867    -0.25900
C568        C  0.32900602  0.19887308  0.82526561     0.02700
C569        C  0.32391330  0.19383947  0.78051675     0.27500
C570        C  0.29842237  0.21550493  0.75652838    -0.25000
N571        N  0.27268677  0.27860079  0.84031267    -0.82400
H572        H  0.31753854  0.23184850  0.87836884     0.13300
C573        C  0.35061892  0.17388030  0.85241711     0.02700
N574        N  0.34380746  0.16618717  0.75983411    -0.81000
H575        H  0.29399275  0.21064795  0.72237983     0.18200
C576        C  0.33278112  0.14249008  0.85402124    -0.25800
C577        C  0.35249424  0.11740869  0.87787634     0.36200
C578        C  0.39157167  0.12374191  0.90032571    -0.19900
C579        C  0.40829005  0.15571544  0.90004227    -0.25100
C580        C  0.38853896  0.18071767  0.87588266     0.27600
H581        H  0.30306284  0.13761364  0.83657360     0.13300
N582        N  0.33243028  0.08579714  0.87982885    -0.82400
H583        H  0.43738569  0.16118384  0.91802823     0.18200
N584        N  0.40729409  0.21277784  0.87433025    -0.81000
H585        H  0.32236746  0.08199100  0.91189856     0.33800
H586        H  0.30449163  0.08515268  0.86077794     0.38300
H587        H  0.43515922  0.21380585  0.89346018     0.33800
H588        H  0.41720096  0.21712176  0.84233619     0.30500
H589        H  0.33636981  0.16563104  0.72675199     0.33800
H590        H  0.37735174  0.16913266  0.76202615     0.30500
H591        H  0.25552709  0.27292399  0.86866471     0.38300
H592        H  0.30053366  0.29136623  0.84934618     0.33800
C593        C  0.58856265  0.90351157  0.10648123    -0.19900
C594        C  0.58232181  0.86966600  0.09903560     0.36300
C595        C  0.60716325  0.84681552  0.12232112    -0.25900
C596        C  0.63648729  0.85673494  0.15432136     0.02700
C597        C  0.64198366  0.89019213  0.16270042     0.27500
C598        C  0.61858072  0.91313874  0.13840160    -0.25000
N599        N  0.55083037  0.85838496  0.06824576    -0.82400
H600        H  0.60315419  0.82099905  0.11608510     0.13300
C601        C  0.66219589  0.83195109  0.17825422     0.02700
N602        N  0.67127651  0.90069918  0.19607055    -0.81000
H603        H  0.62370465  0.93877657  0.14496795     0.18200
C604        C  0.70721793  0.83235360  0.17340169    -0.25800
C605        C  0.73371622  0.81002330  0.19527738     0.36200
C606        C  0.71525022  0.78516814  0.22195017    -0.19900
C607        C  0.66973685  0.78630438  0.22824186    -0.25100
C608        C  0.64321331  0.80894524  0.20678193     0.27600
H609        H  0.72214656  0.85043566  0.15243843     0.13300
N610        N  0.77969163  0.81278063  0.19011542    -0.82400
H611        H  0.65389336  0.77018875  0.25101073     0.18200
N612        N  0.59745558  0.80818955  0.21585796    -0.81000
H613        H  0.78904902  0.83572946  0.20146600     0.33800
H614        H  0.78720530  0.81178050  0.15703624     0.38300
H615        H  0.59331807  0.81310491  0.24891614     0.33800
H616        H  0.58073688  0.82647507  0.19942848     0.30500
H617        H  0.67186723  0.92613722  0.19809140     0.33800
H618        H  0.65921438  0.89218916  0.22576923     0.30500
H619        H  0.52020419  0.86374460  0.08094289     0.38300
H620        H  0.55211214  0.83302150  0.06519015     0.33800
C621        C  0.28193938  0.77709489  0.78512785    -0.19900
C622        C  0.30836585  0.80191323  0.76613488     0.36300
C623        C  0.33093059  0.82404326  0.79234299    -0.25900
C624        C  0.32801920  0.82271585  0.83756085     0.02700
C625        C  0.30439144  0.79710850  0.85721170     0.27500
C626        C  0.28335639  0.77403890  0.83094786    -0.25000
N627        N  0.31062535  0.80590363  0.71995398    -0.82400
H628        H  0.34978980  0.84322553  0.77708709     0.13300
C629        C  0.34992295  0.84858477  0.86298975     0.02700
N630        N  0.30010397  0.79405945  0.90357431    -0.81000
H631        H  0.26772276  0.75397937  0.84735789     0.18200
C632        C  0.32679724  0.87670673  0.87449966    -0.25800
C633        C  0.34702675  0.90250829  0.89669658     0.36200
C634        C  0.39151500  0.90029828  0.90683602    -0.19900
C635        C  0.41431808  0.87173146  0.89606114    -0.25100
C636        C  0.39389616  0.84583590  0.87428452     0.27600
H637        H  0.29285101  0.87847470  0.86605537     0.13300
N638        N  0.32244036  0.93066191  0.90957265    -0.82400
H639        H  0.44836684  0.86982487  0.90405632     0.18200
N640        N  0.41768171  0.81694332  0.86297054    -0.81000
H641        H  0.29023874  0.92846399  0.89965287     0.33800
H642        H  0.32197812  0.93127532  0.94352114     0.38300
H643        H  0.44979263  0.81881160  0.87330342     0.33800
H644        H  0.40398473  0.79745570  0.88011214     0.30500
H645        H  0.31512372  0.77230351  0.91279625     0.33800
H646        H  0.31604545  0.81277753  0.91992414     0.30500
H647        H  0.34304495  0.80391800  0.71045218     0.38300
H648        H  0.29999388  0.82940373  0.71221242     0.33800
C649        C  0.89622586  0.11555471  0.60332254    -0.19900
C650        C  0.90619380  0.14916126  0.59934987     0.36300
C651        C  0.88180764  0.17224739  0.62246132    -0.25900
C652        C  0.84770987  0.16262820  0.64971841     0.02700
C653        C  0.83746576  0.12931144  0.65382535     0.27500
C654        C  0.86151615  0.10624015  0.63044729    -0.25000
N655        N  0.94113079  0.16016974  0.57235687    -0.82400
H656        H  0.88947818  0.19791232  0.61899024     0.13300
C657        C  0.82243330  0.18762703  0.67340459     0.02700
N658        N  0.80287640  0.11902676  0.68209655    -0.81000
H659        H  0.85307315  0.08073885  0.63387683     0.18200
C660        C  0.77780057  0.18933882  0.66691161    -0.25800
C661        C  0.75222866  0.21172301  0.68958714     0.36200
C662        C  0.77151996  0.23445467  0.71867450    -0.19900
C663        C  0.81660434  0.23145915  0.72600830    -0.25100
C664        C  0.84208592  0.20861601  0.70351852     0.27600
H665        H  0.76246845  0.17289075  0.64413818     0.13300
N666        N  0.70641843  0.21137449  0.68252929    -0.82400
H667        H  0.83233244  0.24578337  0.75067202     0.18200
N668        N  0.88770838  0.20601354  0.71202763    -0.81000
H669        H  0.70059765  0.21466001  0.64939963     0.33800
H670        H  0.69474967  0.18832937  0.69125191     0.38300
H671        H  0.89735030  0.22328379  0.73497099     0.33800
H672        H  0.89325497  0.18310073  0.72586363     0.30500
H673        H  0.79918440  0.09370163  0.68119856     0.33800
H674        H  0.81168387  0.12496497  0.71386610     0.30500
H675        H  0.92863221  0.17660590  0.54965733     0.38300
H676        H  0.96305236  0.17283964  0.59186142     0.33800
C677        C  0.58813283  0.12164718  0.89560129    -0.19900
C678        C  0.57476784  0.15467311  0.89387794     0.36300
C679        C  0.59905860  0.17719205  0.86939413    -0.25900
C680        C  0.63542010  0.16726462  0.84547218     0.02700
C681        C  0.64758137  0.13420197  0.84540098     0.27500
C682        C  0.62426655  0.11191033  0.87079293    -0.25000
N683        N  0.53631089  0.16519588  0.91615348    -0.82400
H684        H  0.58960481  0.20263057  0.86888472     0.13300
C685        C  0.66104095  0.19160561  0.82085683     0.02700
N686        N  0.68358346  0.12340845  0.81937159    -0.81000
H687        H  0.63466685  0.08669743  0.87112483     0.18200
C688        C  0.70541734  0.19416979  0.82887209    -0.25800
C689        C  0.73161518  0.21523939  0.80463182     0.36200
C690        C  0.71316840  0.23589864  0.77247919    -0.19900
C691        C  0.66813260  0.23271868  0.76462195    -0.25100
C692        C  0.64218723  0.21084041  0.78821012     0.27600
H693        H  0.72011734  0.17918213  0.85381592     0.13300
N694        N  0.77721769  0.21558426  0.81296636    -0.82400
H695        H  0.65289210  0.24570922  0.73831418     0.18200
N696        N  0.59699266  0.20729792  0.77814458    -0.81000
H697        H  0.78926053  0.19209937  0.80763312     0.33800
H698        H  0.78193610  0.22132514  0.84567470     0.38300
H699        H  0.58796704  0.22330594  0.75331857     0.33800
H700        H  0.59239208  0.18371094  0.76619312     0.30500
H701        H  0.68852232  0.09834521  0.82310480     0.33800
H702        H  0.67554083  0.12722097  0.78680475     0.30500
H703        H  0.51022510  0.15364523  0.90111661     0.38300
H704        H  0.53148299  0.19023394  0.91197623     0.33800
C705        C  0.20530057  0.28275769  0.22799214    -0.19900
C706        C  0.19514778  0.31628108  0.23766351     0.36300
C707        C  0.16665753  0.33367079  0.21115190    -0.25900
C708        C  0.14526682  0.31928522  0.17628725     0.02700
C709        C  0.15033952  0.28550121  0.16942408     0.27500
C710        C  0.17936704  0.26786958  0.19557806    -0.25000
N711        N  0.20945366  0.33365137  0.27532000    -0.82400
H712        H  0.16114751  0.35926946  0.21802781     0.13300
C713        C  0.11876459  0.34086853  0.14796774     0.02700
N714        N  0.12660278  0.26816772  0.13664993    -0.81000
H715        H  0.18272136  0.24206299  0.18931694     0.18200
C716        C  0.13210826  0.34669116  0.10498813    -0.25800
C717        C  0.11241094  0.37094879  0.07954347     0.36200
C718        C  0.07884913  0.39008848  0.09789878    -0.19900
C719        C  0.06455561  0.38350564  0.14022623    -0.25100
C720        C  0.08387674  0.35889208  0.16532126     0.27600
H721        H  0.15915415  0.33310829  0.09167724     0.13300
N722        N  0.12861380  0.37629160  0.03623720    -0.82400
H723        H  0.03844347  0.39791050  0.15388576     0.18200
N724        N  0.06888341  0.35250744  0.20874612    -0.81000
H725        H  0.12214432  0.35529738  0.01817955     0.33800
H726        H  0.11269841  0.39546176  0.02072388     0.38300
H727        H  0.04320193  0.36799961  0.21676360     0.33800
H728        H  0.05655311  0.32876875  0.20933775     0.30500
H729        H  0.10731494  0.25084836  0.15247026     0.33800
H730        H  0.10530214  0.28346807  0.12008909     0.30500
H731        H  0.20711732  0.31996382  0.30369544     0.38300
H732        H  0.23947395  0.34456978  0.27033143     0.33800
C733        C  0.21589610  0.73428674  0.21554127    -0.19900
C734        C  0.21748735  0.73274891  0.16911381     0.36300
C735        C  0.19103847  0.71050777  0.14691872    -0.25900
C736        C  0.16400139  0.68890248  0.16928079     0.02700
C737        C  0.16292643  0.68932810  0.21478497     0.27500
C738        C  0.18965171  0.71101435  0.23721479    -0.25000
N739        N  0.24823446  0.75094418  0.14398877    -0.82400
H740        H  0.19305374  0.70912945  0.11181406     0.13300
C741        C  0.14002969  0.66369915  0.14502335     0.02700
N742        N  0.13424519  0.66784650  0.23804561    -0.81000
H743        H  0.18846792  0.71091253  0.27237181     0.18200
C744        C  0.15148800  0.63102905  0.15108722    -0.25800
C745        C  0.12964878  0.60598920  0.12949765     0.36200
C746        C  0.09559358  0.61360192  0.10056774    -0.19900
C747        C  0.08431887  0.64668617  0.09455086    -0.25100
C748        C  0.10597899  0.67175261  0.11678477     0.27600
H749        H  0.17771502  0.62488882  0.17292867     0.13300
N750        N  0.14250490  0.57294801  0.13723023    -0.82400
H751        H  0.05822490  0.65314757  0.07278938     0.18200
N752        N  0.09324679  0.70522724  0.11131786    -0.81000
H753        H  0.13922991  0.56817125  0.17044559     0.33800
H754        H  0.17522703  0.57066643  0.12898193     0.38300
H755        H  0.06747142  0.70702907  0.08952937     0.33800
H756        H  0.08168196  0.71354750  0.14127012     0.30500
H757        H  0.13753522  0.67098380  0.27155552     0.33800
H758        H  0.10255380  0.67464518  0.23034436     0.30500
H759        H  0.23140254  0.76418510  0.12043880     0.38300
H760        H  0.26825279  0.73449535  0.12754713     0.33800
C761        C  0.77328595  0.73808444  0.21819629    -0.19900
C762        C  0.77147476  0.73525236  0.17189085     0.36300
C763        C  0.79837476  0.71279528  0.15031217    -0.25900
C764        C  0.82668109  0.69246634  0.17307935     0.02700
C765        C  0.82877495  0.69459724  0.21841009     0.27500
C766        C  0.80173639  0.71659117  0.24027257    -0.25000
N767        N  0.74043832  0.75257281  0.14630908    -0.82400
H768        H  0.79608727  0.71044754  0.11533332     0.13300
C769        C  0.85099347  0.66686931  0.14951346     0.02700
N770        N  0.85813618  0.67411033  0.24217742    -0.81000
H771        H  0.80330927  0.71740597  0.27537887     0.18200
C772        C  0.89618310  0.66898536  0.14570004    -0.25800
C773        C  0.91996845  0.64469135  0.12386888     0.36200
C774        C  0.89779746  0.61789827  0.10557364    -0.19900
C775        C  0.85274418  0.61544138  0.11073651    -0.25100
C776        C  0.82915159  0.63957706  0.13265129     0.27600
H777        H  0.91283114  0.68963031  0.15985353     0.13300
N778        N  0.96644167  0.64641136  0.12200300    -0.82400
H779        H  0.83581897  0.59462171  0.09735595     0.18200
N780        N  0.78311239  0.63638585  0.13830081    -0.81000
H781        H  0.97768869  0.66629219  0.13993274     0.33800
H782        H  0.97527153  0.65100043  0.08979570     0.38300
H783        H  0.77197794  0.61490105  0.12392119     0.33800
H784        H  0.77695778  0.63416393  0.17158803     0.30500
H785        H  0.85634597  0.67905052  0.27542833     0.33800
H786        H  0.84809008  0.64996779  0.23815215     0.30500
H787        H  0.75709424  0.76552103  0.12220929     0.38300
H788        H  0.72073234  0.73556600  0.13064310     0.33800
C789        C  0.09519006  0.61548666  0.90339429    -0.19900
C790        C  0.12667551  0.63433177  0.92510573     0.36300
C791        C  0.14971141  0.65859241  0.90202655    -0.25900
C792        C  0.14109940  0.66487391  0.85802255     0.02700
C793        C  0.10878298  0.64653730  0.83678231     0.27500
C794        C  0.08670104  0.62170979  0.85946639    -0.25000
N795        N  0.13631915  0.62788133  0.96994365    -0.82400
H796        H  0.17490187  0.67235126  0.91815240     0.13300
C797        C  0.16864674  0.68836295  0.83309286     0.02700
N798        N  0.09867818  0.65323655  0.79211521    -0.81000
H799        H  0.06229753  0.60738849  0.84298173     0.18200
C800        C  0.19390804  0.67593006  0.79927638    -0.25800
C801        C  0.21977963  0.69600946  0.77292534     0.36200
C802        C  0.22334998  0.73024259  0.78185657    -0.19900
C803        C  0.19542744  0.74257976  0.81454139    -0.25100
C804        C  0.16906719  0.72239597  0.84054362     0.27600
H805        H  0.19264772  0.65003688  0.79230503     0.13300
N806        N  0.23945908  0.68108105  0.73576662    -0.82400
H807        H  0.19461571  0.76858603  0.82057572     0.18200
N808        N  0.14308067  0.73755463  0.87367364    -0.81000
H809        H  0.21508097  0.67097851  0.71654415     0.33800
H810        H  0.25913286  0.66195769  0.74649359     0.38300
H811        H  0.12225647  0.75401683  0.85836958     0.33800
H812        H  0.12326480  0.72070839  0.88952446     0.30500
H813        H  0.07431053  0.63762044  0.78115908     0.33800
H814        H  0.08612211  0.67688299  0.79057369     0.30500
H815        H  0.10889068  0.63384747  0.98824637     0.38300
H816        H  0.16115487  0.64316100  0.98070131     0.33800
C817        C  0.88569439  0.62203017  0.91502777    -0.19900
C818        C  0.90130780  0.65439601  0.91051791     0.36300
C819        C  0.87646268  0.67748287  0.88751170    -0.25900
C820        C  0.83581735  0.66931586  0.87064235     0.02700
C821        C  0.81881466  0.63799037  0.87776322     0.27500
C822        C  0.84400764  0.61460672  0.89937260    -0.25000
N823        N  0.94259123  0.66360376  0.92806524    -0.82400
H824        H  0.88887451  0.70191336  0.88244391     0.13300
C825        C  0.81182609  0.69318811  0.84382842     0.02700
N826        N  0.77637126  0.62989642  0.86204474    -0.81000
H827        H  0.83095974  0.59029953  0.90376509     0.18200
C828        C  0.81848162  0.69273502  0.79895531    -0.25800
C829        C  0.79488455  0.71313428  0.77121384     0.36200
C830        C  0.76440960  0.73586777  0.78835403    -0.19900
C831        C  0.75684184  0.73488550  0.83377757    -0.25100
C832        C  0.78012319  0.71415098  0.86145119     0.27600
H833        H  0.84190340  0.67597149  0.78516349     0.13300
N834        N  0.80264390  0.71104906  0.72539477    -0.82400
H835        H  0.73168009  0.74940272  0.84855661     0.18200
N836        N  0.77029135  0.71493189  0.90712797    -0.81000
H837        H  0.83549345  0.71552289  0.71960531     0.33800
H838        H  0.79585627  0.68723244  0.71547101     0.38300
H839        H  0.73871870  0.70620742  0.91115284     0.33800
H840        H  0.79044662  0.69953591  0.92493589     0.30500
H841        H  0.76877680  0.60565506  0.86934878     0.33800
H842        H  0.75403393  0.64427540  0.87893702     0.30500
H843        H  0.93957528  0.66345160  0.96189490     0.38300
H844        H  0.95018663  0.68761911  0.91950850     0.33800
C845        C  0.21051286  0.28316350  0.77291725    -0.19900
C846        C  0.20038395  0.31624123  0.76175597     0.36300
C847        C  0.17371247  0.33489589  0.78896818    -0.25900
C848        C  0.15483832  0.32177220  0.82632207     0.02700
C849        C  0.16038075  0.28843796  0.83538336     0.27500
C850        C  0.18702874  0.26941618  0.80809837    -0.25000
N851        N  0.21519834  0.33130447  0.72239242    -0.82400
H852        H  0.16770229  0.36021479  0.78077600     0.13300
C853        C  0.13092410  0.34409005  0.85592786     0.02700
N854        N  0.13997300  0.27422748  0.87289489    -0.81000
H855        H  0.19158512  0.24392149  0.81594859     0.18200
C856        C  0.08594687  0.34126031  0.86101250    -0.25800
C857        C  0.06231000  0.36442427  0.88525379     0.36200
C858        C  0.08402441  0.39161223  0.90328891    -0.19900
C859        C  0.12926745  0.39352903  0.89955145    -0.25100
C860        C  0.15294336  0.36975428  0.87674942     0.27600
H861        H  0.06919550  0.32131836  0.84529387     0.13300
N862        N  0.01623701  0.36112344  0.88995213    -0.82400
H863        H  0.14620148  0.41373917  0.91445782     0.18200
N864        N  0.19935322  0.37169568  0.87404857    -0.81000
H865        H  0.00502362  0.34116951  0.87215207     0.33800
H866        H  0.00994971  0.35563830  0.92253069     0.38300
H867        H  0.21073397  0.39184874  0.89132649     0.33800
H868        H  0.21194115  0.35101461  0.88938812     0.30500
H869        H  0.14717337  0.24937007  0.87496972     0.33800
H870        H  0.15342201  0.28517308  0.90035863     0.30500
H871        H  0.18818530  0.33884006  0.70464379     0.38300
H872        H  0.23258053  0.35228740  0.73058828     0.33800
C873        C  0.88599034  0.39758384  0.10313027    -0.19900
C874        C  0.89555726  0.36385562  0.09933053     0.36300
C875        C  0.87071052  0.34104869  0.12269441    -0.25900
C876        C  0.83786596  0.35112836  0.15099103     0.02700
C877        C  0.82887530  0.38448804  0.15596946     0.27500
C878        C  0.85266314  0.40733532  0.13175654    -0.25000
N879        N  0.93098657  0.35275960  0.07281647    -0.82400
H880        H  0.87780582  0.31525664  0.11990424     0.13300
C881        C  0.81432260  0.32651094  0.17679006     0.02700
N882        N  0.79579245  0.39495091  0.18584503    -0.81000
H883        H  0.84500655  0.43294436  0.13548189     0.18200
C884        C  0.82093347  0.32526594  0.22152651    -0.25800
C885        C  0.79985707  0.30204470  0.24729627     0.36200
C886        C  0.77094118  0.27910379  0.22828103    -0.19900
C887        C  0.76236514  0.28255698  0.18330221    -0.25100
C888        C  0.78503606  0.30493249  0.15728821     0.27600
H889        H  0.84314550  0.34227304  0.23657245     0.13300
N890        N  0.80836924  0.30169266  0.29295914    -0.82400
H891        H  0.73727408  0.26859775  0.16778612     0.18200
N892        N  0.77821999  0.30601444  0.11113344    -0.81000
H893        H  0.79938224  0.32433703  0.30564827     0.33800
H894        H  0.84167536  0.29897889  0.29762110     0.38300
H895        H  0.75615064  0.28808483  0.10161639     0.33800
H896        H  0.76422972  0.32852890  0.10366800     0.30500
H897        H  0.79353421  0.42038068  0.18621544     0.33800
H898        H  0.76613242  0.38620425  0.17448063     0.30500
H899        H  0.95958132  0.36092353  0.08728586     0.38300
H900        H  0.93263215  0.32729628  0.07277219     0.33800
C901        C  0.88075620  0.40150549  0.90024882    -0.19900
C902        C  0.83888290  0.40793998  0.88364278     0.36300
C903        C  0.81705394  0.38353570  0.86046556    -0.25900
C904        C  0.83572916  0.35283701  0.85423140     0.02700
C905        C  0.87667433  0.34590067  0.87176279     0.27500
C906        C  0.89882421  0.37032713  0.89453570    -0.25000
N907        N  0.81831552  0.43891250  0.89087958    -0.82400
H908        H  0.78530516  0.38841867  0.84706707     0.13300
C909        C  0.81255610  0.32857405  0.82779540     0.02700
N910        N  0.89560286  0.31416959  0.86607420    -0.81000
H911        H  0.93046070  0.36500878  0.90766409     0.18200
C912        C  0.82407399  0.32498369  0.78425291    -0.25800
C913        C  0.80156979  0.30353104  0.75714353     0.36200
C914        C  0.76875696  0.28279430  0.77440344    -0.19900
C915        C  0.75607397  0.28830853  0.81817833    -0.25100
C916        C  0.77739281  0.31097184  0.84469355     0.27600
H917        H  0.84987958  0.33983465  0.77076856     0.13300
N918        N  0.81192748  0.30335532  0.71182885    -0.82400
H919        H  0.72827646  0.27602762  0.83187683     0.18200
N920        N  0.76265699  0.31695513  0.88830930    -0.81000
H921        H  0.80642134  0.32677767  0.69957224     0.33800
H922        H  0.84492675  0.29827435  0.70832741     0.38300
H923        H  0.73558622  0.30262294  0.89560930     0.33800
H924        H  0.78722775  0.30964197  0.90944215     0.30500
H925        H  0.92606797  0.31310710  0.88070901     0.33800
H926        H  0.87600080  0.29738649  0.88251803     0.30500
H927        H  0.78791958  0.43965562  0.87607177     0.38300
H928        H  0.81281004  0.44110609  0.92427018     0.33800
C929        C  0.59075189  0.61832602  0.60325459    -0.19900
C930        C  0.58775469  0.65213844  0.59361711     0.36300
C931        C  0.61216226  0.67479025  0.61789031    -0.25900
C932        C  0.63951267  0.66475564  0.65167032     0.02700
C933        C  0.64259989  0.63124912  0.66141777     0.27500
C934        C  0.61796161  0.60860375  0.63768548    -0.25000
N935        N  0.56055494  0.66356969  0.55900932    -0.82400
H936        H  0.60960379  0.70057480  0.61064865     0.13300
C937        C  0.66436053  0.68947958  0.67712586     0.02700
N938        N  0.67155393  0.62025954  0.69485822    -0.81000
H939        H  0.62089289  0.58300382  0.64581135     0.18200
C940        C  0.65795315  0.69158420  0.72203027    -0.25800
C941        C  0.68138708  0.71372322  0.74756621     0.36200
C942        C  0.71200302  0.73544335  0.72824617    -0.19900
C943        C  0.71899574  0.73226333  0.68292721    -0.25100
C944        C  0.69526389  0.71003922  0.65737728     0.27600
H945        H  0.63443569  0.67576122  0.73759436     0.13300
N946        N  0.67348090  0.71425666  0.79342667    -0.82400
H947        H  0.74413288  0.74608954  0.66697289     0.18200
N948        N  0.70320660  0.70773984  0.61145859    -0.81000
H949        H  0.68046010  0.69111394  0.80585581     0.33800
H950        H  0.64058492  0.71880373  0.79869367     0.38300
H951        H  0.72656824  0.72470136  0.60166561     0.33800
H952        H  0.71614003  0.68464501  0.60531163     0.30500
H953        H  0.66986158  0.59493673  0.69841796     0.33800
H954        H  0.70310572  0.62562396  0.68468991     0.30500
H955        H  0.52843587  0.65998877  0.56870237     0.38300
H956        H  0.56425197  0.68868976  0.55452688     0.33800
C957        C  0.38956889  0.39843195  0.59308213    -0.19900
C958        C  0.35028522  0.40458237  0.61553712     0.36300
C959        C  0.32998103  0.37916948  0.63843578    -0.25900
C960        C  0.34720375  0.34756541  0.63878024     0.02700
C961        C  0.38508419  0.34084944  0.61492589     0.27500
C962        C  0.40590034  0.36630613  0.59237225    -0.25000
N963        N  0.33077378  0.43640816  0.61484649    -0.82400
H964        H  0.30036575  0.38398442  0.65629949     0.13300
C965        C  0.32582983  0.32248359  0.66619538     0.02700
N966        N  0.40269418  0.30841191  0.61442733    -0.81000
H967        H  0.43557445  0.36104269  0.57491212     0.18200
C968        C  0.30789553  0.29446230  0.64752065    -0.25800
C969        C  0.28308498  0.27248636  0.67249044     0.36200
C970        C  0.27344215  0.27986061  0.71670151    -0.19900
C971        C  0.29746569  0.30537539  0.73595670    -0.25100
C972        C  0.32237952  0.32708705  0.71123629     0.27600
H973        H  0.31291563  0.28969779  0.61327124     0.13300
N974        N  0.27057744  0.24218658  0.65322338    -0.82400
H975        H  0.29402036  0.31002928  0.77029785     0.18200
N976        N  0.34321724  0.35444447  0.73151799    -0.81000
H977        H  0.25329178  0.24717106  0.62486540     0.33800
H978        H  0.29874697  0.22978414  0.64411705     0.38300
H979        H  0.33694651  0.35469746  0.76490286     0.33800
H980        H  0.37662898  0.35138358  0.72784296     0.30500
H981        H  0.43061231  0.30749809  0.59516733     0.33800
H982        H  0.41221801  0.30269810  0.64608055     0.30500
H983        H  0.32113058  0.44106999  0.58291855     0.38300
H984        H  0.30261338  0.43684764  0.63378254     0.33800
C985        C  0.71806038  0.27728740  0.28709992    -0.19900
C986        C  0.72225935  0.28136804  0.33291860     0.36300
C987        C  0.69483860  0.30302959  0.35501495    -0.25900
C988        C  0.66397759  0.32165185  0.33308537     0.02700
C989        C  0.66043174  0.31905037  0.28765578     0.27500
C990        C  0.68759100  0.29750311  0.26556324    -0.25000
N991        N  0.75558579  0.26567109  0.35741726    -0.82400
H992        H  0.69869512  0.30615680  0.38974327     0.13300
C993        C  0.63972188  0.34635407  0.35785550     0.02700
N994        N  0.63070230  0.33840366  0.26259453    -0.81000
H995        H  0.68438553  0.29610509  0.23058644     0.18200
C996        C  0.66068952  0.37557546  0.36775271    -0.25800
C997        C  0.63933843  0.40028746  0.39066601     0.36200
C998        C  0.59554034  0.39592456  0.40296493    -0.19900
C999        C  0.57487367  0.36611945  0.39388338    -0.25100
C1000       C  0.59668466  0.34117702  0.37140440     0.27600
H1001       H  0.69404968  0.37898002  0.35766417     0.13300
N1002       N  0.66227643  0.42951829  0.40215448    -0.82400
H1003       H  0.54145911  0.36251332  0.40361382     0.18200
N1004       N  0.57563794  0.31062653  0.36264622    -0.81000
H1005       H  0.66477981  0.42996728  0.43600409     0.33800
H1006       H  0.69391849  0.42902126  0.38999332     0.38300
H1007       H  0.54416577  0.31063721  0.37527342     0.33800
H1008       H  0.57267187  0.30834661  0.32899353     0.30500
H1009       H  0.60876994  0.32245899  0.24793964     0.33800
H1010       H  0.61248345  0.35411610  0.28198682     0.30500
H1011       H  0.74085271  0.25201787  0.38208998     0.38300
H1012       H  0.77455982  0.28359929  0.37215450     0.33800
C1013       C  0.39748118  0.61941552  0.39448441    -0.19900
C1014       C  0.40547605  0.65321824  0.40062665     0.36300
C1015       C  0.38090517  0.67625350  0.37741643    -0.25900
C1016       C  0.34884527  0.66636218  0.34831015     0.02700
C1017       C  0.34020945  0.63303059  0.34256153     0.27500
C1018       C  0.36470934  0.60996520  0.36531832    -0.25000
N1019       N  0.43819733  0.66423964  0.43025726    -0.82400
H1020       H  0.38702203  0.70207024  0.38164126     0.13300
C1021       C  0.32410659  0.69091937  0.32363609     0.02700
N1022       N  0.30623537  0.62281704  0.31378139    -0.81000
H1023       H  0.35757417  0.58439144  0.36041330     0.18200
C1024       C  0.32985032  0.69270910  0.27882816    -0.25800
C1025       C  0.30365127  0.71246870  0.25302174     0.36200
C1026       C  0.27160285  0.73328887  0.27260356    -0.19900
C1027       C  0.26546420  0.72987361  0.31812695    -0.25100
C1028       C  0.29166915  0.70951086  0.34361120     0.27600
H1029       H  0.35393536  0.67732841  0.26337922     0.13300
N1030       N  0.30980973  0.70919170  0.20710474    -0.82400
H1031       H  0.23912952  0.74198175  0.33452596     0.18200
N1032       N  0.28483478  0.70705874  0.38971817    -0.81000
H1033       H  0.28288299  0.69786151  0.19356209     0.33800
H1034       H  0.31602897  0.73154752  0.19239576     0.38300
H1035       H  0.26009837  0.72274975  0.39975997     0.33800
H1036       H  0.27428186  0.68335879  0.39647091     0.30500
H1037       H  0.30395677  0.59739566  0.31305237     0.33800
H1038       H  0.27693657  0.63134744  0.32653659     0.30500
H1039       H  0.46823632  0.65793007  0.41699617     0.38300
H1040       H  0.43801816  0.68967020  0.43258483     0.33800
C1041       C  0.71803113  0.73621508  0.27681673    -0.19900
C1042       C  0.68809280  0.71297634  0.25912054     0.36300
C1043       C  0.66362948  0.69293363  0.28659736    -0.25900
C1044       C  0.66992997  0.69281104  0.33137019     0.02700
C1045       C  0.70165100  0.71299243  0.34946209     0.27500
C1046       C  0.72549946  0.73399778  0.32231316    -0.25000
N1047       N  0.68311718  0.70717174  0.21355920    -0.82400
H1048       H  0.64088692  0.67584905  0.27249852     0.13300
C1049       C  0.64676455  0.66829214  0.35789795     0.02700
N1050       N  0.71056111  0.71123018  0.39522004    -0.81000
H1051       H  0.75109768  0.74766908  0.33745877     0.18200
C1052       C  0.66591629  0.63771668  0.36393759    -0.25800
C1053       C  0.64384109  0.61257709  0.38574242     0.36200
C1054       C  0.60140710  0.61821381  0.40165361    -0.19900
C1055       C  0.58295812  0.64936808  0.39666099    -0.25100
C1056       C  0.60517721  0.67442671  0.37475331     0.27600
H1057       H  0.69807271  0.63337723  0.35098034     0.13300
N1058       N  0.66446607  0.58147667  0.39174501    -0.82400
H1059       H  0.55063930  0.65398904  0.40893226     0.18200
N1060       N  0.58533730  0.70577888  0.36858266    -0.81000
H1061       H  0.69520375  0.58129753  0.37740616     0.33800
H1062       H  0.66915893  0.57821589  0.42507773     0.38300
H1063       H  0.55429400  0.70612180  0.38224003     0.33800
H1064       H  0.60365812  0.72288802  0.38566138     0.30500
H1065       H  0.73548193  0.72726429  0.40357493     0.33800
H1066       H  0.68291766  0.71915338  0.41178832     0.30500
H1067       H  0.67590995  0.72857081  0.19695355     0.38300
H1068       H  0.71119605  0.69641530  0.20136704     0.33800
C1069       C  0.71587369  0.28229027  0.71526673    -0.19900
C1070       C  0.72196137  0.28717081  0.66969664     0.36300
C1071       C  0.69480583  0.30857791  0.64709836    -0.25900
C1072       C  0.66334152  0.32701253  0.66854592     0.02700
C1073       C  0.65862804  0.32424634  0.71370238     0.27500
C1074       C  0.68502640  0.30240165  0.73641309    -0.25000
N1075       N  0.75695664  0.27259543  0.64606984    -0.82400
H1076       H  0.69945500  0.31177117  0.61243361     0.13300
C1077       C  0.63849606  0.35137200  0.64364640     0.02700
N1078       N  0.62754889  0.34403702  0.73642794    -0.81000
H1079       H  0.68096172  0.30057828  0.77125776     0.18200
C1080       C  0.59337811  0.34841370  0.64021167    -0.25800
C1081       C  0.56920260  0.37140988  0.61660735     0.36200
C1082       C  0.59091827  0.39758048  0.59614536    -0.19900
C1083       C  0.63597481  0.40045453  0.59984713    -0.25100
C1084       C  0.65999861  0.37767351  0.62353001     0.27600
H1085       H  0.57712753  0.32820992  0.65609459     0.13300
N1086       N  0.52285054  0.36872721  0.61413334    -0.82400
H1087       H  0.65245975  0.42070272  0.58429238     0.18200
N1088       N  0.70611789  0.38126721  0.62772925    -0.81000
H1089       H  0.51201979  0.34815422  0.63108542     0.33800
H1090       H  0.50953636  0.38896838  0.62987400     0.38300
H1091       H  0.71693713  0.40187493  0.61085193     0.33800
H1092       H  0.71282419  0.38536696  0.66052122     0.30500
H1093       H  0.62782235  0.33878047  0.76966787     0.33800
H1094       H  0.63725390  0.36834417  0.73323213     0.30500
H1095       H  0.77599023  0.29122775  0.63281241     0.38300
H1096       H  0.74399495  0.25940270  0.62016797     0.33800
C1097       C  0.28460322  0.73760195  0.72468515    -0.19900
C1098       C  0.31673501  0.71626019  0.74189675     0.36300
C1099       C  0.34164336  0.69663074  0.71405130    -0.25900
C1100       C  0.33572085  0.69766379  0.66908184     0.02700
C1101       C  0.30774860  0.72112439  0.65126216     0.27500
C1102       C  0.28395249  0.74168413  0.67904359    -0.25000
N1103       N  0.32182494  0.71252317  0.78786297    -0.82400
H1104       H  0.36402868  0.67913482  0.72784995     0.13300
C1105       C  0.35721520  0.67280512  0.64143432     0.02700
N1106       N  0.30302659  0.72352992  0.60495470    -0.81000
H1107       H  0.26441369  0.76044388  0.66435923     0.18200
C1108       C  0.33221299  0.64765018  0.62362181    -0.25800
C1109       C  0.35158631  0.62198929  0.60029594     0.36200
C1110       C  0.39697691  0.62182084  0.59407116    -0.19900
C1111       C  0.42173026  0.64771464  0.61069011    -0.25100
C1112       C  0.40229724  0.67310056  0.63454168     0.27600
H1113       H  0.29750531  0.64764536  0.62893912     0.13300
N1114       N  0.32517056  0.59662823  0.58208877    -0.82400
H1115       H  0.45648873  0.64773831  0.60586447     0.18200
N1116       N  0.42807120  0.69907076  0.65209013    -0.81000
H1117       H  0.29234576  0.60232219  0.58554354     0.33800
H1118       H  0.33018508  0.57555814  0.60051706     0.38300
H1119       H  0.46074406  0.69566089  0.64434377     0.33800
H1120       H  0.41849310  0.72068735  0.63686150     0.30500
H1121       H  0.28062770  0.74165080  0.59689869     0.33800
H1122       H  0.33283901  0.73090459  0.59211132     0.30500
H1123       H  0.31625357  0.68810640  0.79594276     0.38300
H1124       H  0.35391326  0.71804597  0.79563129     0.33800
C1125       C  0.38845566  0.39682457  0.40538646    -0.19900
C1126       C  0.34575385  0.40126090  0.38997806     0.36300
C1127       C  0.32547351  0.37592501  0.36708451    -0.25900
C1128       C  0.34609759  0.34588348  0.36085718     0.02700
C1129       C  0.38739166  0.34050937  0.37865575     0.27500
C1130       C  0.40829411  0.36611373  0.40048156    -0.25000
N1131       N  0.32285224  0.43114537  0.39816943    -0.82400
H1132       H  0.29322761  0.37948623  0.35413392     0.13300
C1133       C  0.32365550  0.32075022  0.33489439     0.02700
N1134       N  0.40828339  0.30942142  0.37360867    -0.81000
H1135       H  0.44068107  0.36223084  0.41285765     0.18200
C1136       C  0.32485761  0.32352908  0.28968793    -0.25800
C1137       C  0.29870682  0.30389573  0.26331527     0.36200
C1138       C  0.26962766  0.28083078  0.28224041    -0.19900
C1139       C  0.27265153  0.27601533  0.32772616    -0.25100
C1140       C  0.29823507  0.29603186  0.35414161     0.27600
H1141       H  0.34495762  0.34211537  0.27471780     0.13300
N1142       N  0.29999056  0.30891046  0.21726410    -0.82400
H1143       H  0.25553916  0.25651245  0.34376713     0.18200
N1144       N  0.29650040  0.29098054  0.40035746    -0.81000
H1145       H  0.29255830  0.33329928  0.21078425     0.33800
H1146       H  0.33162524  0.30457215  0.20654702     0.38300
H1147       H  0.30952947  0.26795017  0.40674607     0.33800
H1148       H  0.31543954  0.30779242  0.41713755     0.30500
H1149       H  0.43886106  0.30968665  0.38807706     0.33800
H1150       H  0.39000757  0.29214405  0.39063144     0.30500
H1151       H  0.31845770  0.43301002  0.43176203     0.38300
H1152       H  0.29189249  0.43035770  0.38457344     0.33800
loop_ 
_geom_bond_atom_site_label_1 
_geom_bond_atom_site_label_2 
_geom_bond_distance 
_geom_bond_site_symmetry_2 
_ccdc_geom_bond_type 
O1          Zr13   2.450       .  S
O1            C3   1.290       .  A
O2          Zr39   2.415       .  S
O2            C3   1.285       .  A
C3          C957   1.493       .  S
O4          Zr16   2.437       .  S
O4            C6   1.289       .  A
O5          Zr40   2.427       .  S
O5            C6   1.287       .  A
C6         C1013   1.494       .  S
O7          Zr16   2.454       .  S
O7            C9   1.290       .  A
O8          Zr39   2.413       .  S
O8            C9   1.285       .  A
C9         C1125   1.488       .  S
O10         Zr13   2.454       .  S
O10          C12   1.290       .  A
O11         Zr40   2.425       .  S
O11          C12   1.287       .  A
C12        C1110   1.486       .  S
Zr13         O14   2.434       .  S
Zr13         O15   2.436       .  S
Zr13         O19   2.370       .  S
Zr13         O20   2.368       .  S
Zr13         O43   2.372       .  S
Zr13         O45   2.373       .  S
O14          H57   0.990       .  S
O15          H56   0.990       .  S
O15          H60   0.990       .  S
Zr16         O17   2.436       .  S
Zr16         O18   2.438       .  S
Zr16         O20   2.380       .  S
Zr16         O19   2.369       .  S
Zr16         O44   2.366       .  S
Zr16         O46   2.377       .  S
O17          H58   0.990       .  S
O17          H61   0.990       .  S
O18          H51   0.990       .  S
O19         Zr39   2.377       .  S
O20         Zr40   2.391       .  S
O20          H47   0.966       .  S
O21         Zr33   2.439       .  S
O21          C23   1.288       .  A
O22         Zr40   2.445       .  S
O22          C23   1.290       .  A
C23         C929   1.506       .  S
O24         Zr36   2.438       .  S
O24          C26   1.288       .  A
O25         Zr39   2.421       .  S
O25          C26   1.286       .  A
C26         C998   1.481       .  S
O27         Zr36   2.446       .  S
O27          C29   1.289       .  A
O28         Zr40   2.422       .  S
O28          C29   1.287       .  A
C29        C1054   1.487       .  S
O30         Zr33   2.436       .  S
O30          C32   1.286       .  A
O31         Zr39   2.415       .  S
O31          C32   1.284       .  A
C32        C1082   1.471       .  S
Zr33         O34   2.438       .  S
Zr33         O35   2.433       .  S
Zr33         O41   2.366       .  S
Zr33         O42   2.371       .  S
Zr33         O45   2.370       .  S
Zr33         O43   2.373       .  S
O34          H54   0.990       .  S
O34          H59   0.990       .  S
O35          H55   0.990       .  S
Zr36         O37   2.434       .  S
Zr36         O38   2.436       .  S
Zr36         O42   2.374       .  S
Zr36         O41   2.375       .  S
Zr36         O46   2.371       .  S
Zr36         O44   2.373       .  S
O37          H53   0.990       .  S
O38          H52   0.990       .  S
O38          H62   0.990       .  S
Zr39         O42   2.384       .  S
Zr39         O44   2.384       .  S
Zr39         O45   2.382       .  S
Zr40         O41   2.383       .  S
Zr40         O43   2.377       .  S
Zr40         O46   2.392       .  S
O41          H49   0.966       .  S
O44          H48   0.967       .  S
O45          H50   0.966       .  S
O63         Zr75   2.434       .  S
O63          C65   1.287       .  A
O64        Zr101   2.425       .  S
O64          C65   1.287       .  A
C65         C901   1.485       .  S
O66         Zr78   2.464       .  S
O66          C68   1.292       .  A
O67        Zr102   2.434   1_456  S
O67          C68   1.288       .  A
C68         C789   1.483       .  S
O69         Zr78   2.470       .  S
O69          C71   1.294       .  A
O70        Zr101   2.422   1_455  S
O70          C71   1.285       .  A
C71         C858   1.488       .  S
O72         Zr75   2.439       .  S
O72          C74   1.288       .  A
O73        Zr102   2.436   1_556  S
O73          C74   1.288       .  A
C74         C817   1.494       .  S
Zr75         O76   2.436       .  S
Zr75         O77   2.437       .  S
Zr75         O81   2.377       .  S
Zr75         O82   2.373       .  S
Zr75        O105   2.367   1_556  S
Zr75        O107   2.372   1_556  S
O76         H119   0.990       .  S
O77         H118   0.990       .  S
O77         H122   0.990       .  S
Zr78         O79   2.435       .  S
Zr78         O80   2.433       .  S
Zr78         O82   2.383   1_455  S
Zr78         O81   2.375   1_455  S
Zr78        O106   2.372       .  S
Zr78        O108   2.377       .  S
O79         H120   0.990       .  S
O79         H123   0.990       .  S
O80         H113   0.990       .  S
O81        Zr101   2.382       .  S
O82        Zr102   2.385   1_556  S
O82         H109   0.966       .  S
O83         Zr95   2.431       .  S
O83          C85   1.287       .  A
O84        Zr102   2.429       .  S
O84          C85   1.287       .  A
C85         C774   1.478       .  S
O86         Zr98   2.454       .  S
O86          C88   1.290       .  A
O87        Zr101   2.420   1_454  S
O87          C88   1.285       .  A
C88         C718   1.472       .  S
O89         Zr98   2.457       .  S
O89          C91   1.291       .  A
O90        Zr102   2.408   1_455  S
O90          C91   1.284       .  A
C91         C746   1.493       .  S
O92         Zr95   2.434       .  S
O92          C94   1.287       .  A
O93        Zr101   2.430   1_554  S
O93          C94   1.287       .  A
C94         C873   1.494       .  S
Zr95         O96   2.435       .  S
Zr95         O97   2.434       .  S
Zr95        O103   2.365       .  S
Zr95        O104   2.364       .  S
Zr95        O107   2.373       .  S
Zr95        O105   2.375       .  S
O96         H116   0.990       .  S
O96         H121   0.990       .  S
O97         H117   0.990       .  S
Zr98         O99   2.435       .  S
Zr98        O100   2.437       .  S
Zr98        O104   2.374   1_455  S
Zr98        O103   2.369   1_455  S
Zr98        O108   2.374   1_554  S
Zr98        O106   2.367   1_554  S
O99         H115   0.990       .  S
O100        H114   0.990       .  S
O100        H124   0.990       .  S
Zr101       O104   2.381   1_556  S
Zr101       O106   2.387   1_655  S
Zr101       O107   2.383   1_556  S
Zr102       O103   2.388       .  S
Zr102       O105   2.377       .  S
Zr102       O108   2.386   1_654  S
O103        H111   0.966       .  S
O106        H110   0.966       .  S
O107        H112   0.967       .  S
C125        C662   1.560       .  S
C125        C690   1.564       .  S
C125        C914   1.566       .  S
C125       C1069   1.561       .  S
O126       Zr138   2.429       .  S
O126        C128   1.286       .  A
O127       Zr164   2.428   1_556  S
O127        C128   1.287       .  A
C128        C677   1.490       .  S
O129       Zr141   2.456   1_565  S
O129        C131   1.292       .  A
O130       Zr165   2.417   1_556  S
O130        C131   1.286       .  A
C131        C634   1.485       .  S
O132       Zr141   2.449       .  S
O132        C134   1.290       .  A
O133       Zr164   2.424   1_556  S
O133        C134   1.288       .  A
C134        C578   1.492       .  S
O135       Zr138   2.424   1_565  S
O135        C137   1.286       .  A
O136       Zr165   2.434   1_556  S
O136        C137   1.289       .  A
C137        C550   1.485       .  S
Zr138       O139   2.435       .  S
Zr138       O140   2.437       .  S
Zr138       O144   2.367       .  S
Zr138       O145   2.367   1_545  S
Zr138       O168   2.370   1_546  S
Zr138       O170   2.371   1_556  S
O139        H182   0.990       .  S
O140        H181   0.990       .  S
O140        H185   0.990       .  S
Zr141       O142   2.438       .  S
Zr141       O143   2.432       .  S
Zr141       O145   2.363   1_545  S
Zr141       O144   2.372       .  S
Zr141       O169   2.372       .  S
Zr141       O171   2.374   1_546  S
O142        H183   0.990       .  S
O142        H186   0.990   1_545  S
O143        H176   0.990       .  S
O144       Zr164   2.384   1_556  S
O145       Zr165   2.383   1_556  S
O145        H172   0.966       .  S
O146       Zr158   2.438   1_565  S
O146        C148   1.288       .  A
O147       Zr165   2.425       .  S
O147        C148   1.286       .  A
C148        C593   1.497       .  S
O149       Zr161   2.437       .  S
O149        C151   1.287       .  A
O150       Zr164   2.432       .  S
O150        C151   1.288       .  A
C151        C494   1.484       .  S
O152       Zr161   2.424   1_565  S
O152        C154   1.284       .  A
O153       Zr165   2.434       .  S
O153        C154   1.289       .  A
C154        C522   1.491       .  S
O155       Zr158   2.419       .  S
O155        C157   1.284       .  A
O156       Zr164   2.437       .  S
O156        C157   1.289       .  A
C157        C453   1.476       .  S
Zr158       O159   2.436       .  S
Zr158       O160   2.435       .  S
Zr158       O166   2.364   1_545  S
Zr158       O167   2.373       .  S
Zr158       O170   2.375       .  S
Zr158       O168   2.364   1_545  S
O159        H179   0.990   1_545  S
O159        H184   0.990       .  S
O160        H180   0.990       .  S
Zr161       O162   2.434       .  S
Zr161       O163   2.437       .  S
Zr161       O167   2.365       .  S
Zr161       O166   2.373   1_545  S
Zr161       O171   2.374   1_545  S
Zr161       O169   2.363   1_554  S
O162        H178   0.990       .  S
O163        H177   0.990   1_545  S
O163        H187   0.990       .  S
Zr164       O167   2.376       .  S
Zr164       O169   2.386   1_554  S
Zr164       O170   2.387       .  S
Zr165       O166   2.383       .  S
Zr165       O168   2.379       .  S
Zr165       O171   2.385       .  S
O166        H174   0.966       .  S
O169        H173   0.965       .  S
O170        H175   0.966       .  S
C188        C425   1.580       .  S
C188        C621   1.576       .  S
C188        C802   1.578       .  S
C188       C1097   1.565       .  S
O189       Zr201   2.428       .  S
O189        C191   1.286       .  A
O190       Zr227   2.433       .  S
O190        C191   1.287       .  A
C191        C397   1.489       .  S
O192       Zr204   2.439   1_565  S
O192        C194   1.287       .  A
O193       Zr228   2.438       .  S
O193        C194   1.289       .  A
C194        C313   1.486       .  S
O195       Zr204   2.441       .  S
O195        C197   1.289       .  A
O196       Zr227   2.419       .  S
O196        C197   1.285       .  A
C197        C649   1.492       .  S
O198       Zr201   2.422   1_565  S
O198        C200   1.285       .  A
O199       Zr228   2.439       .  S
O199        C200   1.289       .  A
C200        C382   1.495       .  S
Zr201       O202   2.435       .  S
Zr201       O203   2.437       .  S
Zr201       O207   2.363       .  S
Zr201       O208   2.373   1_545  S
Zr201       O231   2.371   1_545  S
Zr201       O233   2.367       .  S
O202        H245   0.989   1_545  S
O203        H244   0.990       .  S
O203        H248   0.990       .  S
Zr204       O205   2.438       .  S
Zr204       O206   2.434       .  S
Zr204       O208   2.371   1_545  S
Zr204       O207   2.368       .  S
Zr204       O232   2.374       .  S
Zr204       O234   2.372   1_545  S
O205        H246   0.990       .  S
O205        H249   0.989   1_545  S
O206        H239   0.990       .  S
O207       Zr227   2.376       .  S
O208       Zr228   2.385       .  S
O208        H235   0.966       .  S
O209       Zr221   2.448   1_565  S
O209        C211   1.289       .  A
O210       Zr228   2.424   1_455  S
O210        C211   1.286       .  A
C211        C354   1.476       .  S
O212       Zr224   2.449       .  S
O212        C214   1.290       .  A
O213       Zr227   2.404   1_455  S
O213        C214   1.283       .  A
C214        C257   1.474       .  S
O215       Zr224   2.461   1_565  S
O215        C217   1.291       .  A
O216       Zr228   2.429   1_455  S
O216        C217   1.287       .  A
C217        C438   1.480       .  S
O218       Zr221   2.464       .  S
O218        C220   1.292       .  A
O219       Zr227   2.424   1_455  S
O219        C220   1.285       .  A
C220        C298   1.478       .  S
Zr221       O222   2.439       .  S
Zr221       O223   2.435       .  S
Zr221       O229   2.377   1_545  S
Zr221       O230   2.371       .  S
Zr221       O233   2.373   1_455  S
Zr221       O231   2.375   1_445  S
O222        H242   0.990       .  S
O222        H247   0.990   1_545  S
O223        H243   0.990       .  S
Zr224       O225   2.435       .  S
Zr224       O226   2.435       .  S
Zr224       O230   2.378       .  S
Zr224       O229   2.374   1_545  S
Zr224       O234   2.369   1_445  S
Zr224       O232   2.374   1_455  S
O225        H241   0.990   1_545  S
O226        H240   0.990   1_545  S
O226        H250   0.990       .  S
Zr227       O230   2.387   1_655  S
Zr227       O232   2.393       .  S
Zr227       O233   2.380       .  S
Zr228       O229   2.393   1_655  S
Zr228       O231   2.385       .  S
Zr228       O234   2.383       .  S
O229        H237   0.966       .  S
O232        H236   0.966       .  S
O233        H238   0.966   1_655  S
C251        C369   1.575       .  S
C251        C606   1.568       .  S
C251        C761   1.568       .  S
C251       C1041   1.580       .  S
C252        C285   1.579       .  S
C252        C481   1.568       .  S
C252        C705   1.578       .  S
C252       C1138   1.566       .  S
C253        C410   1.564       .  S
C253        C466   1.567       .  S
C253        C886   1.560       .  S
C253        C985   1.567       .  S
C254        C341   1.574       .  S
C254        C509   1.558       .  S
C254        C733   1.557       .  S
C254       C1026   1.577       .  S
C255        C270   1.567       .  S
C255        C565   1.567       .  S
C255        C845   1.570       .  S
C255        C970   1.559       .  S
C256        C326   1.573       .  S
C256        C537   1.572       .  S
C256        C830   1.570       .  S
C256        C942   1.571       .  S
C257        C258   1.410       .  A
C257        C262   1.404       .  A
C258        C259   1.403       .  A
C258        N263   1.438       .  S
C259        C260   1.404       .  A
C259        H264   1.084       .  S
C260        C265   1.480       .  S
C260        C261   1.409       .  A
C261        C262   1.403       .  A
C261        N266   1.438       .  S
C262        H267   1.084       .  S
N263        H283   1.046       .  S
N263        H284   1.046       .  S
C265        C268   1.398       .  A
C265        C272   1.403       .  A
N266        H281   1.046       .  S
N266        H282   1.046       .  S
C268        C269   1.404       .  A
C268        H273   1.084       .  S
C269        C270   1.421       .  A
C269        N274   1.429       .  S
C270        C271   1.421       .  A
C271        C272   1.401       .  A
C271        H275   1.080       .  S
C272        N276   1.439       .  S
N274        H277   1.045       .  S
N274        H278   1.046       .  S
N276        H279   1.046       .  S
N276        H280   1.046       .  S
C285        C286   1.435       .  A
C285        C290   1.418       .  A
C286        C287   1.402       .  A
C286        N291   1.433       .  S
C287        C288   1.395       .  A
C287        H292   1.084       .  S
C288        C293   1.490       .  S
C288        C289   1.406       .  A
C289        C290   1.411       .  A
C289        N294   1.437       .  S
C290        H295   1.076       .  S
N291        H311   1.046       .  S
N291        H312   1.046       .  S
C293        C296   1.405       .  A
C293        C300   1.412       .  A
N294        H309   1.046       .  S
N294        H310   1.046       .  S
C296        C297   1.411       .  A
C296        H301   1.084       .  S
C297        C298   1.411       .  A
C297        N302   1.438       .  S
C298        C299   1.402       .  A
C299        C300   1.408       .  A
C299        H303   1.084       .  S
C300        N304   1.438       .  S
N302        H305   1.046       .  S
N302        H306   1.045       .  S
N304        H307   1.046       .  S
N304        H308   1.046       .  S
C313        C314   1.417       .  A
C313        C318   1.405       .  A
C314        C315   1.406       .  A
C314        N319   1.438       .  S
C315        C316   1.401       .  A
C315        H320   1.084       .  S
C316        C321   1.484       .  S
C316        C317   1.410       .  A
C317        C318   1.408       .  A
C317        N322   1.437       .  S
C318        H323   1.084       .  S
N319        H339   1.045       .  S
N319        H340   1.046       .  S
C321        C324   1.397       .  A
C321        C328   1.412       .  A
N322        H337   1.046       .  S
N322        H338   1.046       .  S
C324        C325   1.402       .  A
C324        H329   1.084       .  S
C325        C326   1.422       .  A
C325        N330   1.430       .  S
C326        C327   1.423       .  A
C327        C328   1.404       .  A
C327        H331   1.079       .  S
C328        N332   1.440       .  S
N330        H333   1.046       .  S
N330        H334   1.046       .  S
N332        H335   1.046       .  S
N332        H336   1.043       .  S
C341        C342   1.435       .  A
C341        C346   1.420       .  A
C342        C343   1.401       .  A
C342        N347   1.432       .  S
C343        C344   1.395       .  A
C343        H348   1.084       .  S
C344        C349   1.482       .  S
C344        C345   1.405       .  A
C345        C346   1.403       .  A
C345        N350   1.438       .  S
C346        H351   1.083       .  S
N347        H367   1.046       .  S
N347        H368   1.046       .  S
C349        C352   1.402       .  A
C349        C356   1.412       .  A
N350        H365   1.046       .  S
N350        H366   1.046       .  S
C352        C353   1.399       .  A
C352        H357   1.084       .  S
C353        C354   1.414       .  A
C353        N358   1.431       .  S
C354        C355   1.402       .  A
C355        C356   1.404       .  A
C355        H359   1.084       .  S
C356        N360   1.438       .  S
N358        H361   1.045       .  S
N358        H362   1.045       .  S
N360        H363   1.046       .  S
N360        H364   1.046       .  S
C369        C370   1.426       .  A
C369        C374   1.422       .  A
C370        C371   1.401       .  A
C370        N375   1.433       .  S
C371        C372   1.398       .  A
C371        H376   1.084       .  S
C372        C377   1.483       .  S
C372        C373   1.404       .  A
C373        C374   1.404       .  A
C373        N378   1.438       .  S
C374        H379   1.078       .  S
N375        H395   1.046       .  S
N375        H396   1.046       .  S
C377        C380   1.403       .  A
C377        C384   1.406       .  A
N378        H393   1.046       .  S
N378        H394   1.046       .  S
C380        C381   1.409       .  A
C380        H385   1.084       .  S
C381        C382   1.419       .  A
C381        N386   1.437       .  S
C382        C383   1.411       .  A
C383        C384   1.401       .  A
C383        H387   1.083       .  S
C384        N388   1.439       .  S
N386        H389   1.046       .  S
N386        H390   1.045       .  S
N388        H391   1.045       .  S
N388        H392   1.046       .  S
C397        C398   1.417       .  A
C397        C402   1.409       .  A
C398        C399   1.409       .  A
C398        N403   1.437       .  S
C399        C400   1.402       .  A
C399        H404   1.084       .  S
C400        C405   1.477       .  S
C400        C401   1.405       .  A
C401        C402   1.401       .  A
C401        N406   1.439       .  S
C402        H407   1.083       .  S
N403        H423   1.046       .  S
N403        H424   1.046       .  S
C405        C408   1.394       .  A
C405        C412   1.403       .  A
N406        H421   1.046       .  S
N406        H422   1.044       .  S
C408        C409   1.404       .  A
C408        H413   1.084       .  S
C409        C410   1.433       .  A
C409        N414   1.432       .  S
C410        C411   1.417       .  A
C411        C412   1.404       .  A
C411        H415   1.083       .  S
C412        N416   1.438       .  S
N414        H417   1.046       .  S
N414        H418   1.046       .  S
N416        H419   1.046       .  S
N416        H420   1.044       .  S
C425        C426   1.426       .  A
C425        C430   1.421       .  A
C426        C427   1.412       .  A
C426        N431   1.431       .  S
C427        C428   1.402       .  A
C427        H432   1.084       .  S
C428        C433   1.493       .  S
C428        C429   1.402       .  A
C429        C430   1.401       .  A
C429        N434   1.433       .  S
C430        H435   1.079       .  S
N431        H451   1.046       .  S
N431        H452   1.045       .  S
C433        C436   1.407       .  A
C433        C440   1.412       .  A
N434        H449   1.046       .  S
N434        H450   1.046       .  S
C436        C437   1.411       .  A
C436        H441   1.084       .  S
C437        C438   1.409       .  A
C437        N442   1.438       .  S
C438        C439   1.402       .  A
C439        C440   1.409       .  A
C439        H443   1.081       .  S
C440        N444   1.438       .  S
N442        H445   1.046       .  S
N442        H446   1.046       .  S
N444        H447   1.046       .  S
N444        H448   1.046       .  S
C453        C454   1.415       .  A
C453        C458   1.403       .  A
C454        C455   1.400       .  A
C454        N459   1.438       .  S
C455        C456   1.399       .  A
C455        H460   1.084       .  S
C456        C461   1.476       .  S
C456        C457   1.410       .  A
C457        C458   1.405       .  A
C457        N462   1.437       .  S
C458        H463   1.084       .  S
N459        H479   1.045       .  S
N459        H480   1.046       .  S
C461        C464   1.397       .  A
C461        C468   1.404       .  A
N462        H477   1.046       .  S
N462        H478   1.045       .  S
C464        C465   1.400       .  A
C464        H469   1.084       .  S
C465        C466   1.422       .  A
C465        N470   1.431       .  S
C466        C467   1.420       .  A
C467        C468   1.401       .  A
C467        H471   1.080       .  S
C468        N472   1.439       .  S
N470        H473   1.046       .  S
N470        H474   1.045       .  S
N472        H475   1.046       .  S
N472        H476   1.045       .  S
C481        C482   1.428       .  A
C481        C486   1.418       .  A
C482        C483   1.401       .  A
C482        N487   1.432       .  S
C483        C484   1.394       .  A
C483        H488   1.084       .  S
C484        C489   1.480       .  S
C484        C485   1.405       .  A
C485        C486   1.409       .  A
C485        N490   1.437       .  S
C486        H491   1.078       .  S
N487        H507   1.046       .  S
N487        H508   1.046       .  S
C489        C492   1.400       .  A
C489        C496   1.407       .  A
N490        H505   1.045       .  S
N490        H506   1.046       .  S
C492        C493   1.406       .  A
C492        H497   1.084       .  S
C493        C494   1.417       .  A
C493        N498   1.438       .  S
C494        C495   1.406       .  A
C495        C496   1.406       .  A
C495        H499   1.084       .  S
C496        N500   1.437       .  S
N498        H501   1.046       .  S
N498        H502   1.045       .  S
N500        H503   1.046       .  S
N500        H504   1.045       .  S
C509        C510   1.424       .  A
C509        C514   1.419       .  A
C510        C511   1.396       .  A
C510        N515   1.432       .  S
C511        C512   1.396       .  A
C511        H516   1.084       .  S
C512        C517   1.471       .  S
C512        C513   1.409       .  A
C513        C514   1.396       .  A
C513        N518   1.439       .  S
C514        H519   1.079       .  S
N515        H535   1.045       .  S
N515        H536   1.046       .  S
C517        C520   1.395       .  A
C517        C524   1.403       .  A
N518        H533   1.045       .  S
N518        H534   1.043       .  S
C520        C521   1.400       .  A
C520        H525   1.084       .  S
C521        C522   1.424       .  A
C521        N526   1.438       .  S
C522        C523   1.409       .  A
C523        C524   1.401       .  A
C523        H527   1.083       .  S
C524        N528   1.432       .  S
N526        H529   1.046       .  S
N526        H530   1.046       .  S
N528        H531   1.045       .  S
N528        H532   1.046       .  S
C537        C538   1.433       .  A
C537        C542   1.420       .  A
C538        C539   1.404       .  A
C538        N543   1.432       .  S
C539        C540   1.394       .  A
C539        H544   1.084       .  S
C540        C545   1.479       .  S
C540        C541   1.403       .  A
C541        C542   1.407       .  A
C541        N546   1.438       .  S
C542        H547   1.083       .  S
N543        H563   1.045       .  S
N543        H564   1.046       .  S
C545        C548   1.403       .  A
C545        C552   1.406       .  A
N546        H561   1.046       .  S
N546        H562   1.045       .  S
C548        C549   1.409       .  A
C548        H553   1.084       .  S
C549        C550   1.414       .  A
C549        N554   1.438       .  S
C550        C551   1.408       .  A
C551        C552   1.402       .  A
C551        H555   1.084       .  S
C552        N556   1.438       .  S
N554        H557   1.046       .  S
N554        H558   1.046       .  S
N556        H559   1.046       .  S
N556        H560   1.045       .  S
C565        C566   1.425       .  A
C565        C570   1.418       .  A
C566        C567   1.408       .  A
C566        N571   1.431       .  S
C567        C568   1.401       .  A
C567        H572   1.084       .  S
C568        C573   1.482       .  S
C568        C569   1.403       .  A
C569        C570   1.399       .  A
C569        N574   1.439       .  S
C570        H575   1.080       .  S
N571        H591   1.046       .  S
N571        H592   1.046       .  S
C573        C576   1.401       .  A
C573        C580   1.407       .  A
N574        H589   1.045       .  S
N574        H590   1.046       .  S
C576        C577   1.403       .  A
C576        H581   1.084       .  S
C577        C578   1.417       .  A
C577        N582   1.438       .  S
C578        C579   1.409       .  A
C579        C580   1.407       .  A
C579        H583   1.081       .  S
C580        N584   1.438       .  S
N582        H585   1.046       .  S
N582        H586   1.046       .  S
N584        H587   1.046       .  S
N584        H588   1.046       .  S
C593        C594   1.421       .  A
C593        C598   1.411       .  A
C594        C595   1.408       .  A
C594        N599   1.438       .  S
C595        C596   1.402       .  A
C595        H600   1.084       .  S
C596        C601   1.486       .  S
C596        C597   1.407       .  A
C597        C598   1.404       .  A
C597        N602   1.438       .  S
C598        H603   1.083       .  S
N599        H619   1.046       .  S
N599        H620   1.046       .  S
C601        C604   1.398       .  A
C601        C608   1.414       .  A
N602        H617   1.046       .  S
N602        H618   1.046       .  S
C604        C605   1.402       .  A
C604        H609   1.084       .  S
C605        C606   1.426       .  A
C605        N610   1.433       .  S
C606        C607   1.419       .  A
C607        C608   1.404       .  A
C607        H611   1.079       .  S
C608        N612   1.440       .  S
N610        H613   1.046       .  S
N610        H614   1.045       .  S
N612        H615   1.046       .  S
N612        H616   1.042       .  S
C621        C622   1.428       .  A
C621        C626   1.417       .  A
C622        C623   1.403       .  A
C622        N627   1.433       .  S
C623        C624   1.396       .  A
C623        H628   1.084       .  S
C624        C629   1.484       .  S
C624        C625   1.413       .  A
C625        C626   1.406       .  A
C625        N630   1.439       .  S
C626        H631   1.078       .  S
N627        H647   1.045       .  S
N627        H648   1.046       .  S
C629        C632   1.402       .  A
C629        C636   1.408       .  A
N630        H645   1.045       .  S
N630        H646   1.043       .  S
C632        C633   1.408       .  A
C632        H637   1.084       .  S
C633        C634   1.413       .  A
C633        N638   1.438       .  S
C634        C635   1.407       .  A
C635        C636   1.408       .  A
C635        H639   1.084       .  S
C636        N640   1.437       .  S
N638        H641   1.045       .  S
N638        H642   1.046       .  S
N640        H643   1.046       .  S
N640        H644   1.046       .  S
C649        C650   1.417       .  A
C649        C654   1.409       .  A
C650        C651   1.403       .  A
C650        N655   1.432       .  S
C651        C652   1.401       .  A
C651        H656   1.084       .  S
C652        C657   1.481       .  S
C652        C653   1.408       .  A
C653        C654   1.402       .  A
C653        N658   1.438       .  S
C654        H659   1.083       .  S
N655        H675   1.045       .  S
N655        H676   1.046       .  S
C657        C660   1.396       .  A
C657        C664   1.406       .  A
N658        H673   1.045       .  S
N658        H674   1.046       .  S
C660        C661   1.398       .  A
C660        H665   1.084       .  S
C661        C662   1.426       .  A
C661        N666   1.432       .  S
C662        C663   1.417       .  A
C663        C664   1.406       .  A
C663        H667   1.078       .  S
C664        N668   1.438       .  S
N666        H669   1.045       .  S
N666        H670   1.046       .  S
N668        H671   1.045       .  S
N668        H672   1.046       .  S
C677        C678   1.417       .  A
C677        C682   1.409       .  A
C678        C679   1.406       .  A
C678        N683   1.436       .  S
C679        C680   1.402       .  A
C679        H684   1.084       .  S
C680        C685   1.480       .  S
C680        C681   1.407       .  A
C681        C682   1.400       .  A
C681        N686   1.439       .  S
C682        H687   1.083       .  S
N683        H703   1.045       .  S
N683        H704   1.046       .  S
C685        C688   1.398       .  A
C685        C692   1.405       .  A
N686        H701   1.046       .  S
N686        H702   1.046       .  S
C688        C689   1.397       .  A
C688        H693   1.084       .  S
C689        C690   1.423       .  A
C689        N694   1.433       .  S
C690        C691   1.419       .  A
C691        C692   1.403       .  A
C691        H695   1.079       .  S
C692        N696   1.438       .  S
N694        H697   1.046       .  S
N694        H698   1.046       .  S
N696        H699   1.046       .  S
N696        H700   1.046       .  S
C705        C706   1.442       .  A
C705        C710   1.421       .  A
C706        C707   1.398       .  A
C706        N711   1.433       .  S
C707        C708   1.395       .  A
C707        H712   1.085       .  S
C708        C713   1.489       .  S
C708        C709   1.411       .  A
C709        C710   1.407       .  A
C709        N714   1.439       .  S
C710        H715   1.081       .  S
N711        H731   1.040       .  S
N711        H732   1.040       .  S
C713        C716   1.405       .  A
C713        C720   1.411       .  A
N714        H729   1.046       .  S
N714        H730   1.043       .  S
C716        C717   1.405       .  A
C716        H721   1.084       .  S
C717        C718   1.417       .  A
C717        N722   1.439       .  S
C718        C719   1.401       .  A
C719        C720   1.405       .  A
C719        H723   1.084       .  S
C720        N724   1.437       .  S
N722        H725   1.046       .  S
N722        H726   1.043       .  S
N724        H727   1.046       .  S
N724        H728   1.046       .  S
C733        C734   1.432       .  A
C733        C738   1.417       .  A
C734        C735   1.405       .  A
C734        N739   1.432       .  S
C735        C736   1.397       .  A
C735        H740   1.084       .  S
C736        C741   1.477       .  S
C736        C737   1.402       .  A
C737        C738   1.399       .  A
C737        N742   1.438       .  S
C738        H743   1.083       .  S
N739        H759   1.045       .  S
N739        H760   1.046       .  S
C741        C744   1.398       .  A
C741        C748   1.406       .  A
N742        H757   1.046       .  S
N742        H758   1.046       .  S
C744        C745   1.399       .  A
C744        H749   1.084       .  S
C745        C746   1.416       .  A
C745        N750   1.432       .  S
C746        C747   1.413       .  A
C747        C748   1.407       .  A
C747        H751   1.083       .  S
C748        N752   1.438       .  S
N750        H753   1.046       .  S
N750        H754   1.046       .  S
N752        H755   1.046       .  S
N752        H756   1.046       .  S
C761        C762   1.432       .  A
C761        C766   1.419       .  A
C762        C763   1.407       .  A
C762        N767   1.431       .  S
C763        C764   1.398       .  A
C763        H768   1.084       .  S
C764        C769   1.481       .  S
C764        C765   1.401       .  A
C765        C766   1.401       .  A
C765        N770   1.438       .  S
C766        H771   1.083       .  S
N767        H787   1.046       .  S
N767        H788   1.045       .  S
C769        C772   1.403       .  A
C769        C776   1.408       .  A
N770        H785   1.045       .  S
N770        H786   1.045       .  S
C772        C773   1.409       .  A
C772        H777   1.084       .  S
C773        C774   1.414       .  A
C773        N778   1.438       .  S
C774        C775   1.404       .  A
C775        C776   1.402       .  A
C775        H779   1.084       .  S
C776        N780   1.438       .  S
N778        H781   1.046       .  S
N778        H782   1.045       .  S
N780        H783   1.046       .  S
N780        H784   1.046       .  S
C789        C790   1.413       .  A
C789        C794   1.402       .  A
C790        C791   1.413       .  A
C790        N795   1.438       .  S
C791        C792   1.405       .  A
C791        H796   1.084       .  S
C792        C797   1.495       .  S
C792        C793   1.413       .  A
C793        C794   1.409       .  A
C793        N798   1.438       .  S
C794        H799   1.084       .  S
N795        H815   1.045       .  S
N795        H816   1.046       .  S
C797        C800   1.396       .  A
C797        C804   1.415       .  A
N798        H813   1.045       .  S
N798        H814   1.046       .  S
C800        C801   1.403       .  A
C800        H805   1.085       .  S
C801        C802   1.436       .  A
C801        N806   1.432       .  S
C802        C803   1.417       .  A
C803        C804   1.408       .  A
C803        H807   1.083       .  S
C804        N808   1.438       .  S
N806        H809   1.046       .  S
N806        H810   1.046       .  S
N808        H811   1.046       .  S
N808        H812   1.043       .  S
C817        C818   1.419       .  A
C817        C822   1.410       .  A
C818        C819   1.411       .  A
C818        N823   1.437       .  S
C819        C820   1.401       .  A
C819        H824   1.084       .  S
C820        C825   1.480       .  S
C820        C821   1.405       .  A
C821        C822   1.404       .  A
C821        N826   1.438       .  S
C822        H827   1.083       .  S
N823        H843   1.046       .  S
N823        H844   1.046       .  S
C825        C828   1.397       .  A
C825        C832   1.411       .  A
N826        H841   1.045       .  S
N826        H842   1.046       .  S
C828        C829   1.401       .  A
C828        H833   1.084       .  S
C829        C830   1.426       .  A
C829        N834   1.433       .  S
C830        C831   1.418       .  A
C831        C832   1.403       .  A
C831        H835   1.079       .  S
C832        N836   1.438       .  S
N834        H837   1.046       .  S
N834        H838   1.046       .  S
N836        H839   1.046       .  S
N836        H840   1.043       .  S
C845        C846   1.434       .  A
C845        C850   1.418       .  A
C846        C847   1.401       .  A
C846        N851   1.433       .  S
C847        C848   1.395       .  A
C847        H852   1.085       .  S
C848        C853   1.488       .  S
C848        C849   1.406       .  A
C849        C850   1.411       .  A
C849        N854   1.437       .  S
C850        H855   1.082       .  S
N851        H871   1.046       .  S
N851        H872   1.046       .  S
C853        C856   1.402       .  A
C853        C860   1.410       .  A
N854        H869   1.046       .  S
N854        H870   1.046       .  S
C856        C857   1.411       .  A
C856        H861   1.084       .  S
C857        C858   1.417       .  A
C857        N862   1.436       .  S
C858        C859   1.404       .  A
C859        C860   1.406       .  A
C859        H863   1.084       .  S
C860        N864   1.438       .  S
N862        H865   1.046       .  S
N862        H866   1.045       .  S
N864        H867   1.045       .  S
N864        H868   1.046       .  S
C873        C874   1.420       .  A
C873        C878   1.411       .  A
C874        C875   1.405       .  A
C874        N879   1.438       .  S
C875        C876   1.398       .  A
C875        H880   1.084       .  S
C876        C881   1.474       .  S
C876        C877   1.405       .  A
C877        C878   1.403       .  A
C877        N882   1.439       .  S
C878        H883   1.083       .  S
N879        H899   1.046       .  S
N879        H900   1.046       .  S
C881        C884   1.394       .  A
C881        C888   1.403       .  A
N882        H897   1.046       .  S
N882        H898   1.046       .  S
C884        C885   1.398       .  A
C884        H889   1.084       .  S
C885        C886   1.425       .  A
C885        N890   1.432       .  S
C886        C887   1.418       .  A
C887        C888   1.403       .  A
C887        H891   1.077       .  S
C888        N892   1.438       .  S
N890        H893   1.046       .  S
N890        H894   1.045       .  S
N892        H895   1.046       .  S
N892        H896   1.045       .  S
C901        C902   1.417       .  A
C901        C906   1.407       .  A
C902        C903   1.404       .  A
C902        N907   1.438       .  S
C903        C904   1.398       .  A
C903        H908   1.084       .  S
C904        C909   1.474       .  S
C904        C905   1.406       .  A
C905        C906   1.403       .  A
C905        N910   1.438       .  S
C906        H911   1.081       .  S
N907        H927   1.046       .  S
N907        H928   1.046       .  S
C909        C912   1.394       .  A
C909        C916   1.402       .  A
N910        H925   1.046       .  S
N910        H926   1.046       .  S
C912        C913   1.400       .  A
C912        H917   1.084       .  S
C913        C914   1.424       .  A
C913        N918   1.431       .  S
C914        C915   1.421       .  A
C915        C916   1.404       .  A
C915        H919   1.080       .  S
C916        N920   1.438       .  S
N918        H921   1.046       .  S
N918        H922   1.046       .  S
N920        H923   1.046       .  S
N920        H924   1.045       .  S
C929        C930   1.421       .  A
C929        C934   1.412       .  A
C930        C931   1.413       .  A
C930        N935   1.438       .  S
C931        C932   1.404       .  A
C931        H936   1.083       .  S
C932        C937   1.496       .  S
C932        C933   1.410       .  A
C933        C934   1.408       .  A
C933        N938   1.438       .  S
C934        H939   1.083       .  S
N935        H955   1.045       .  S
N935        H956   1.046       .  S
C937        C940   1.399       .  A
C937        C944   1.409       .  A
N938        H953   1.046       .  S
N938        H954   1.046       .  S
C940        C941   1.405       .  A
C940        H945   1.084       .  S
C941        C942   1.427       .  A
C941        N946   1.433       .  S
C942        C943   1.418       .  A
C943        C944   1.412       .  A
C943        H947   1.078       .  S
C944        N948   1.438       .  S
N946        H949   1.046       .  S
N946        H950   1.045       .  S
N948        H951   1.046       .  S
N948        H952   1.046       .  S
C957        C958   1.417       .  A
C957        C962   1.411       .  A
C958        C959   1.404       .  A
C958        N963   1.438       .  S
C959        C960   1.401       .  A
C959        H964   1.084       .  S
C960        C965   1.483       .  S
C960        C961   1.407       .  A
C961        C962   1.407       .  A
C961        N966   1.438       .  S
C962        H967   1.083       .  S
N963        H983   1.046       .  S
N963        H984   1.046       .  S
C965        C968   1.401       .  A
C965        C972   1.404       .  A
N966        H981   1.046       .  S
N966        H982   1.045       .  S
C968        C969   1.409       .  A
C968        H973   1.084       .  S
C969        C970   1.426       .  A
C969        N974   1.432       .  S
C970        C971   1.415       .  A
C971        C972   1.399       .  A
C971        H975   1.080       .  S
C972        N976   1.438       .  S
N974        H977   1.045       .  S
N974        H978   1.046       .  S
N976        H979   1.046       .  S
N976        H980   1.045       .  S
C985        C986   1.428       .  A
C985        C990   1.420       .  A
C986        C987   1.403       .  A
C986        N991   1.431       .  S
C987        C988   1.397       .  A
C987        H992   1.084       .  S
C988        C993   1.473       .  S
C988        C989   1.408       .  A
C989        C990   1.395       .  A
C989        N994   1.440       .  S
C990        H995   1.084       .  S
N991       H1011   1.046       .  S
N991       H1012   1.046       .  S
C993        C996   1.397       .  A
C993       C1000   1.408       .  A
N994       H1009   1.046       .  S
N994       H1010   1.043       .  S
C996        C997   1.400       .  A
C996       H1001   1.084       .  S
C997        C998   1.415       .  A
C997       N1002   1.438       .  S
C998        C999   1.408       .  A
C999       C1000   1.407       .  A
C999       H1003   1.084       .  S
C1000      N1004   1.438       .  S
N1002      H1005   1.046       .  S
N1002      H1006   1.046       .  S
N1004      H1007   1.046       .  S
N1004      H1008   1.045       .  S
C1013      C1014   1.421       .  A
C1013      C1018   1.410       .  A
C1014      C1015   1.408       .  A
C1014      N1019   1.438       .  S
C1015      C1016   1.399       .  A
C1015      H1020   1.084       .  S
C1016      C1021   1.476       .  S
C1016      C1017   1.405       .  A
C1017      C1018   1.400       .  A
C1017      N1022   1.439       .  S
C1018      H1023   1.083       .  S
N1019      H1039   1.045       .  S
N1019      H1040   1.046       .  S
C1021      C1024   1.392       .  A
C1021      C1028   1.401       .  A
N1022      H1037   1.045       .  S
N1022      H1038   1.046       .  S
C1024      C1025   1.395       .  A
C1024      H1029   1.085       .  S
C1025      C1026   1.439       .  A
C1025      N1030   1.433       .  S
C1026      C1027   1.421       .  A
C1027      C1028   1.404       .  A
C1027      H1031   1.078       .  S
C1028      N1032   1.438       .  S
N1030      H1033   1.041       .  S
N1030      H1034   1.040       .  S
N1032      H1035   1.045       .  S
N1032      H1036   1.046       .  S
C1041      C1042   1.437       .  A
C1041      C1046   1.424       .  A
C1042      C1043   1.398       .  A
C1042      N1047   1.432       .  S
C1043      C1044   1.393       .  A
C1043      H1048   1.085       .  S
C1044      C1049   1.478       .  S
C1044      C1045   1.400       .  A
C1045      C1046   1.406       .  A
C1045      N1050   1.438       .  S
C1046      H1051   1.077       .  S
N1047      H1067   1.040       .  S
N1047      H1068   1.042       .  S
C1049      C1052   1.399       .  A
C1049      C1056   1.407       .  A
N1050      H1065   1.046       .  S
N1050      H1066   1.045       .  S
C1052      C1053   1.405       .  A
C1052      H1057   1.084       .  S
C1053      C1054   1.417       .  A
C1053      N1058   1.438       .  S
C1054      C1055   1.408       .  A
C1055      C1056   1.406       .  A
C1055      H1059   1.083       .  S
C1056      N1060   1.437       .  S
N1058      H1061   1.046       .  S
N1058      H1062   1.046       .  S
N1060      H1063   1.046       .  S
N1060      H1064   1.045       .  S
C1069      C1070   1.429       .  A
C1069      C1074   1.418       .  A
C1070      C1071   1.400       .  A
C1070      N1075   1.432       .  S
C1071      C1072   1.396       .  A
C1071      H1076   1.084       .  S
C1072      C1077   1.476       .  S
C1072      C1073   1.402       .  A
C1073      C1074   1.400       .  A
C1073      N1078   1.438       .  S
C1074      H1079   1.082       .  S
N1075      H1095   1.046       .  S
N1075      H1096   1.046       .  S
C1077      C1080   1.403       .  A
C1077      C1084   1.408       .  A
N1078      H1093   1.046       .  S
N1078      H1094   1.045       .  S
C1080      C1081   1.406       .  A
C1080      H1085   1.084       .  S
C1081      C1082   1.412       .  A
C1081      N1086   1.438       .  S
C1082      C1083   1.402       .  A
C1083      C1084   1.399       .  A
C1083      H1087   1.084       .  S
C1084      N1088   1.438       .  S
N1086      H1089   1.046       .  S
N1086      H1090   1.046       .  S
N1088      H1091   1.046       .  S
N1088      H1092   1.046       .  S
C1097      C1098   1.426       .  A
C1097      C1102   1.415       .  A
C1098      C1099   1.405       .  A
C1098      N1103   1.433       .  S
C1099      C1100   1.398       .  A
C1099      H1104   1.084       .  S
C1100      C1105   1.485       .  S
C1100      C1101   1.406       .  A
C1101      C1102   1.408       .  A
C1101      N1106   1.437       .  S
C1102      H1107   1.078       .  S
N1103      H1123   1.046       .  S
N1103      H1124   1.045       .  S
C1105      C1108   1.402       .  A
C1105      C1112   1.408       .  A
N1106      H1121   1.046       .  S
N1106      H1122   1.045       .  S
C1108      C1109   1.408       .  A
C1108      H1113   1.084       .  S
C1109      C1110   1.414       .  A
C1109      N1114   1.438       .  S
C1110      C1111   1.407       .  A
C1111      C1112   1.409       .  A
C1111      H1115   1.083       .  S
C1112      N1116   1.437       .  S
N1114      H1117   1.046       .  S
N1114      H1118   1.045       .  S
N1116      H1119   1.046       .  S
N1116      H1120   1.046       .  S
C1125      C1126   1.415       .  A
C1125      C1130   1.409       .  A
C1126      C1127   1.405       .  A
C1126      N1131   1.438       .  S
C1127      C1128   1.400       .  A
C1127      H1132   1.084       .  S
C1128      C1133   1.480       .  S
C1128      C1129   1.407       .  A
C1129      C1130   1.406       .  A
C1129      N1134   1.438       .  S
C1130      H1135   1.084       .  S
N1131      H1151   1.046       .  S
N1131      H1152   1.046       .  S
C1133      C1136   1.397       .  A
C1133      C1140   1.411       .  A
N1134      H1149   1.046       .  S
N1134      H1150   1.045       .  S
C1136      C1137   1.403       .  A
C1136      H1141   1.084       .  S
C1137      C1138   1.427       .  A
C1137      N1142   1.433       .  S
C1138      C1139   1.418       .  A
C1139      C1140   1.403       .  A
C1139      H1143   1.077       .  S
C1140      N1144   1.439       .  S
N1142      H1145   1.045       .  S
N1142      H1146   1.046       .  S
N1144      H1147   1.046       .  S
N1144      H1148   1.043       .  S
