geometry optimzed in LAMMPS
_audit_creation_date              2020-11-30 
_audit_creation_method            'lammps2cif' 
_symmetry_space_group_name_H-M    'P1' 
_symmetry_Int_Tables_number       1 
_symmetry_cell_setting            triclinic 
loop_ 
_symmetry_equiv_pos_as_xyz 
  x,y,z 
_cell_length_a                    32.93691555 
_cell_length_b                    33.68429900798061 
_cell_length_c                    45.44144606679334 
_cell_angle_alpha                 90.0385490654015 
_cell_angle_beta                  90.37426913887107 
_cell_angle_gamma                 81.6560272365256 
loop_ 
_atom_site_label 
_atom_site_type_symbol 
_atom_site_fract_x 
_atom_site_fract_y 
_atom_site_fract_z 
_atom_site_charge 
O1          O  0.19059265  0.33379159  0.60689040    -0.78200
C2          C  0.32161195  0.32656380  0.61510767     0.82800
O3          O  0.26163427  0.21687297  0.54802049    -0.79300
O4          O  0.33801706  0.19792977  0.64170199    -0.80800
O5          O  0.21674224  0.24197196  0.68736817    -0.80600
O6          O  0.16098093  0.29684804  0.63876581    -0.79200
Zn7        Zn  0.24238992  0.29771548  0.59341995     1.55700
O8          O  0.28011743  0.25686358  0.68815571    -0.80600
Cd9        Cd  0.20195238  0.24495586  0.64268307     1.59700
Cd10       Cd  0.26049262  0.20014676  0.59199184     1.59600
O11         O  0.17357945  0.19636301  0.63030325    -0.80600
O12         O  0.25050976  0.24909484  0.61749736    -1.91100
Cd13       Cd  0.29799634  0.25077869  0.64446031     1.59900
O14         O  0.21321063  0.16594378  0.59515024    -0.80600
O15         O  0.32880005  0.29776941  0.63342520    -0.79200
C16         C  0.24990461  0.25038238  0.53524705     0.83300
C17         C  0.16174357  0.32942132  0.62475070     0.83000
O18         O  0.28997119  0.32992953  0.59841436    -0.78200
C19         C  0.24788595  0.25028397  0.70163817     0.86200
O20         O  0.23968918  0.28280967  0.54977638    -0.78300
C21         C  0.18169026  0.16822678  0.61150879     0.83900
C22         C  0.33993704  0.16672387  0.62564695     0.84200
O23         O  0.31357179  0.16309737  0.60546420    -0.80700
C24         C  0.03510156  0.46840141  0.63759366     0.30300
C25         C  0.47120255  0.03175877  0.63727384     0.30300
C26         C  0.49415132  0.46034980  0.62076234    -0.05900
C27         C  0.02150939  0.48559138  0.66782289    -0.06700
C28         C  0.04456119  0.00276565  0.61924997    -0.06600
C29         C  0.46261848  0.49297371  0.62063495    -0.05900
C30         C  0.48839108  0.01802338  0.66756187    -0.06700
C31         C  0.01383239  0.03610109  0.61822737    -0.06600
C32         C  0.42803053  0.47954314  0.60925238    -0.31900
N33         N  0.43670649  0.43969209  0.60386635     0.14600
C34         C  0.47726173  0.42831408  0.60917406    -0.32000
H35         H  0.49196554  0.39781376  0.60625205     0.16500
C36         C  0.47944937  0.02878634  0.69629975    -0.30900
N37         N  0.00703734  0.00530288  0.71291189     0.13300
C38         C  0.03248164  0.47733222  0.69677322    -0.30900
C39         C  0.03035201  0.06547405  0.60297496    -0.31200
N40         N  0.07042661  0.05262954  0.59733205     0.13800
H41         H  0.01629767  0.09568383  0.59814395     0.16400
C42         C  0.07861146  0.01364027  0.60552475    -0.31200
H43         H  0.10859443  0.99600440  0.60408273     0.16400
H44         H  0.05538945  0.45335252  0.70469970     0.16400
H45         H  0.39781656  0.49657105  0.60709749     0.16500
H46         H  0.45569853  0.05218258  0.70374051     0.16400
O47         O  0.04877284  0.09007787  0.94532880    -0.78200
C48         C  0.41944285  0.09918880  0.91558962     0.82800
O49         O  0.01054589  0.48330819  0.99503188    -0.79300
O50         O  0.41829656  0.46669853  0.90894249    -0.80800
O51         O  0.03377945  0.01980458  0.85327914    -0.80600
O52         O  0.08536829  0.05650323  0.91021237    -0.79200
Zn53       Zn  0.99693312  0.06366464  0.94833169     1.55700
O54         O  0.47031304  0.00389605  0.85527864    -0.80600
Cd55       Cd  0.04969906  0.01395370  0.89767239     1.59700
Cd56       Cd  0.00816111  0.46530402  0.95101218     1.59600
O57         O  0.08819130  0.45847819  0.90312486    -0.80600
O58         O  0.00175124  0.01504979  0.92431394    -1.91100
Cd59       Cd  0.45476987  0.01247762  0.89924686     1.59900
O60         O  0.05997854  0.42558307  0.93836038    -0.80600
O61         O  0.41841042  0.06698031  0.90117582    -0.79200
C62         C  0.99999506  0.01697026  0.00681421     0.83300
C63         C  0.08107356  0.08403323  0.92959996     0.83000
O64         O  0.44785955  0.10255027  0.93433921    -0.78200
C65         C  0.00172026  0.01222274  0.83974362     0.83800
O66         O  0.99205920  0.04928232  0.99177475    -0.78300
C67         C  0.08739466  0.42725120  0.91876866     0.83900
C68         C  0.42357907  0.43952973  0.92866292     0.84200
O69         O  0.45505217  0.43531575  0.94552498    -0.80700
C70         C  0.28685739  0.23337408  0.90521260     0.30300
C71         C  0.21891353  0.29188036  0.90518692     0.30300
C72         C  0.29165777  0.27224841  0.92200133    -0.05900
C73         C  0.27018246  0.24840514  0.87505445    -0.06700
C74         C  0.24815258  0.22230126  0.92060755    -0.06600
C75         C  0.25722100  0.30178421  0.92192581    -0.05900
C76         C  0.23582031  0.27760947  0.87497155    -0.06700
C77         C  0.21323855  0.25154544  0.92038336    -0.06600
C78         C  0.26867919  0.33512471  0.93541842    -0.31900
N79         N  0.30907288  0.32750637  0.94256701     0.14600
C80         C  0.32260517  0.28856027  0.93607428    -0.32000
H81         H  0.35392243  0.27464612  0.93910287     0.16500
C82         C  0.22463184  0.28500102  0.84592260    -0.30900
N83         N  0.25175545  0.26157065  0.82858396     0.13300
C84         C  0.27949908  0.23889185  0.84614439    -0.30900
C85         C  0.18248778  0.23372761  0.93370712    -0.31200
N86         N  0.19725111  0.19524375  0.94084252     0.13800
H87         H  0.15091069  0.24597935  0.93708690     0.16400
C88         C  0.23765511  0.18883146  0.93448998    -0.31200
H89         H  0.25686547  0.16040808  0.93812695     0.16400
H90         H  0.30406710  0.21652667  0.83843435     0.16400
H91         H  0.25038756  0.36435589  0.93712258     0.16500
H92         H  0.19863933  0.30566748  0.83797186     0.16400
O93         O  0.45817033  0.44694205  0.10274616    -0.78200
C94         C  0.49959240  0.02045048  0.03969705     0.82800
O95         O  0.08654413  0.47756313  0.14550167    -0.79300
O96         O  0.03463327  0.10373671  0.10095919    -0.80800
O97         O  0.41151272  0.08310026  0.14447882    -0.80600
O98         O  0.41819222  0.48061661  0.13672128    -0.79200
Zn99       Zn  0.50582524  0.47705106  0.09708473     1.55700
O100        O  0.43529935  0.10909764  0.10394390    -0.80600
Cd101      Cd  0.44954436  0.02928927  0.15011461     1.59700
Cd102      Cd  0.04507173  0.02701311  0.14975191     1.59600
O103        O  0.46634535  0.02577814  0.19428074    -0.80600
O104        O  0.49742547  0.02606583  0.12323633    -1.91100
Cd105      Cd  0.48921516  0.07213320  0.09550141     1.59900
O106        O  0.03084076  0.02964763  0.19462636    -0.80600
O107        O  0.49082516  0.05492306  0.05151978    -0.79200
C108        C  0.08624983  0.44653945  0.12955829     0.83300
C109        C  0.42602591  0.45180532  0.11853393     0.83000
O110        O  0.50788258  0.48856116  0.05291915    -0.78200
C111        C  0.40952574  0.11015202  0.12476323     0.83800
O112        O  0.05705229  0.44337068  0.11154480    -0.78300
C113        C  0.49989837  0.02816268  0.20779501     0.83900
C114        C  0.06531390  0.10240935  0.11816618     0.84200
O115        O  0.07291401  0.07549831  0.13799622    -0.80700
C116        C  0.21392553  0.30681411  0.13453940     0.30300
C117        C  0.27630205  0.24368799  0.13248557     0.30300
C118        C  0.25509528  0.31598921  0.12352746    -0.05900
C119        C  0.22522289  0.28522773  0.16434224    -0.06700
C120        C  0.20557521  0.27134499  0.11532940    -0.06600
C121        C  0.28661244  0.28414749  0.12231061    -0.05900
C122        C  0.25683161  0.25272052  0.16298406    -0.06700
C123        C  0.23786486  0.23882992  0.11388114    -0.06600
C124        C  0.32197748  0.29965391  0.11611105    -0.31900
N125        N  0.31238642  0.34002582  0.11390452     0.14600
C126        C  0.27168307  0.35043421  0.11845276    -0.32000
H127        H  0.25616337  0.38091064  0.12051909     0.16500
C128        C  0.26171217  0.23612631  0.19073293    -0.30900
N129        N  0.23459611  0.25770077  0.20896761     0.13300
C130        C  0.21164234  0.28705628  0.19319115    -0.30900
C131        C  0.21919779  0.20489376  0.11080971    -0.31200
N132        N  0.17822757  0.21536483  0.10961294     0.13800
H133        H  0.23392232  0.17424154  0.11354226     0.16400
C134        C  0.16943137  0.25532050  0.11320122    -0.31200
H135        H  0.13912011  0.27092474  0.11808026     0.16400
H136        H  0.18703952  0.30788322  0.20250098     0.16400
H137        H  0.35284962  0.28343054  0.11597771     0.16500
H138        H  0.28399227  0.21092316  0.19746941     0.16400
C139        C  0.46189809  0.03373075  0.40913731     0.30300
C140        C  0.02530955  0.47156447  0.40994630     0.30300
C141        C  0.45475884  0.99106381  0.41585266    -0.05900
C142        C  0.48579904  0.02979074  0.37996969    -0.06700
C143        C  0.99873704  0.03943575  0.43221022    -0.06600
C144        C  0.48835244  0.45933554  0.41916804    -0.05900
C145        C  0.01802036  0.99599643  0.38113861    -0.06700
C146        C  0.03380004  0.00969090  0.43110388    -0.06600
C147        C  0.47496171  0.42360950  0.42576448    -0.31900
N148        N  0.43411860  0.43112568  0.43075871     0.14600
C149        C  0.42136817  0.47093333  0.42765296    -0.32000
H150        H  0.38961730  0.98545843  0.42090783     0.16500
C151        C  0.02438565  0.48830118  0.35127162    -0.30900
N152        N  0.51123047  0.02779673  0.33473210     0.13300
C153        C  0.48150180  0.04679516  0.35241553    -0.30900
C154        C  0.06722002  0.02994663  0.43416807    -0.31200
N155        N  0.05427200  0.06931197  0.43812658     0.13800
H156        H  0.09865087  0.01801641  0.42891768     0.16400
C157        C  0.01313861  0.07568633  0.43600873    -0.31200
H158        H  0.99560310  0.10506451  0.43244550     0.16400
H159        H  0.45712795  0.06971302  0.34508898     0.16400
H160        H  0.49256227  0.39395436  0.42426751     0.16500
H161        H  0.04947132  0.46740950  0.34254892     0.16400
O162        O  0.19672619  0.17840585  0.44235467    -0.78200
C163        C  0.32383972  0.16162979  0.41485482     0.82800
O164        O  0.23929522  0.28483196  0.48951398    -0.79300
O165        O  0.32654205  0.28955081  0.40350889    -0.80800
O166        O  0.20859029  0.24796658  0.34889694    -0.80600
O167        O  0.16012121  0.20842551  0.40504345    -0.79200
Zn168      Zn  0.24776076  0.20368561  0.44553254     1.55700
O169        O  0.27519565  0.25270923  0.34901164    -0.80600
Cd170      Cd  0.19404008  0.25241260  0.39331768     1.59700
Cd171      Cd  0.23998015  0.29752420  0.44476514     1.59600
O172        O  0.15715045  0.30667535  0.39868432    -0.80600
O173        O  0.24339778  0.24921278  0.41937752    -1.91100
Cd174      Cd  0.29156811  0.24572764  0.39284517     1.59900
O175        O  0.18864629  0.33662986  0.43381439    -0.80600
O176        O  0.32652500  0.19026164  0.39705683    -0.79200
C177        C  0.24772744  0.25131914  0.50276526     0.83300
C178        C  0.16522061  0.18258424  0.42568732     0.83000
O179        O  0.29567931  0.16312116  0.43405238    -0.78200
C180        C  0.24167258  0.25122416  0.33527366     0.83800
O181        O  0.25392932  0.21837733  0.48855940    -0.78300
C182        C  0.15918403  0.33647369  0.41562548     0.83900
C183        C  0.32122329  0.31899848  0.42133305     0.84200
O184        O  0.29008194  0.32577418  0.43798860    -0.80700
C185        C  0.11892400  0.13898007  0.40449348    -0.20000
C186        C  0.13436090  0.15573473  0.42970901    -0.06600
C187        C  0.12070632  0.14585592  0.45790706     0.14300
C188        C  0.09330559  0.11784282  0.46009292    -0.20100
C189        C  0.07974637  0.09975354  0.43491553    -0.06600
C190        C  0.09186884  0.11083483  0.40681585     0.14300
C191        C  0.07645309  0.09263046  0.37939954    -0.23400
H192        H  0.12908652  0.14699865  0.38293360     0.15600
H193        H  0.08278962  0.10943518  0.48142432     0.15600
C194        C  0.13397067  0.16537342  0.48554578    -0.23400
H195        H  0.08850818  0.10530324  0.35925375     0.05800
H196        H  0.04243062  0.09876759  0.37848648     0.09000
H197        H  0.08639158  0.05971354  0.37926528     0.09000
H198        H  0.12693815  0.19851364  0.48351471     0.09000
H199        H  0.16734793  0.15653879  0.48938529     0.09000
H200        H  0.11776276  0.15629720  0.50523268     0.05800
C201        C  0.09035526  0.43466159  0.43245064    -0.20000
C202        C  0.06020927  0.43614920  0.41020071    -0.06600
C203        C  0.06122748  0.40223886  0.39138018     0.14300
C204        C  0.09456794  0.37127128  0.39316463    -0.20100
C205        C  0.12602029  0.37147802  0.41424696    -0.06600
C206        C  0.12359282  0.40395752  0.43429241     0.14300
C207        C  0.15508423  0.40700633  0.45823977    -0.23400
H208        H  0.08749057  0.45688387  0.44969366     0.15600
H209        H  0.09514208  0.34601369  0.37829569     0.15600
C210        C  0.02720611  0.39563238  0.37025768    -0.23400
H211        H  0.14769270  0.43469938  0.47161436     0.05800
H212        H  0.18563079  0.40803946  0.44831907     0.09000
H213        H  0.15639135  0.38117278  0.47354434     0.09000
H214        H  0.03894034  0.39423816  0.34737980     0.09000
H215        H  0.50422762  0.42020059  0.36682587     0.09000
H216        H  0.01654802  0.36662881  0.37544497     0.05800
C217        C  0.41562660  0.08781871  0.43639174    -0.20000
C218        C  0.42252380  0.06406623  0.41082058    -0.06600
C219        C  0.39115729  0.06812456  0.38880963     0.14300
C220        C  0.35931492  0.10068287  0.39032961    -0.20100
C221        C  0.35589146  0.12672215  0.41448329    -0.06600
C222        C  0.38340372  0.11943789  0.43823041     0.14300
C223        C  0.37971905  0.14588814  0.46518877    -0.23400
H224        H  0.43547689  0.08195421  0.45538841     0.15600
H225        H  0.33647464  0.10526045  0.37288908     0.15600
C226        C  0.38846562  0.03830249  0.36432014    -0.23400
H227        H  0.40473548  0.13659837  0.48134981     0.05800
H228        H  0.35007810  0.14431386  0.47628102     0.09000
H229        H  0.38131769  0.17741383  0.45873247     0.09000
H230        H  0.41296284  0.01218257  0.36511411     0.09000
H231        H  0.38937285  0.05333907  0.34265162     0.09000
H232        H  0.35886050  0.02635496  0.36594041     0.05800
C233        C  0.39727330  0.38829487  0.40093721    -0.20000
C234        C  0.40739648  0.40160751  0.42882073    -0.06600
C235        C  0.39019344  0.38729391  0.45413520     0.14300
C236        C  0.36253065  0.35971728  0.45107280    -0.20100
C237        C  0.35203135  0.34633452  0.42312010    -0.06600
C238        C  0.36953853  0.36084266  0.39765837     0.14300
C239        C  0.35774395  0.34917444  0.36705817    -0.23400
H240        H  0.41068163  0.40021160  0.38172649     0.15600
H241        H  0.34895985  0.34862854  0.47053777     0.15600
C242        C  0.40110536  0.40137273  0.48415120    -0.23400
H243        H  0.37267079  0.36546035  0.34990410     0.05800
H244        H  0.32400771  0.35646453  0.36397517     0.09000
H245        H  0.36743902  0.31660231  0.36351175     0.09000
H246        H  0.43472421  0.39413547  0.48782275     0.09000
H247        H  0.38540301  0.38660857  0.50171913     0.09000
H248        H  0.39188246  0.43432610  0.48589052     0.05800
C249        C  0.26119837  0.27886307  0.25568679    -0.20000
C250        C  0.23610412  0.25549698  0.24050939    -0.06600
C251        C  0.21321792  0.23058850  0.25643932     0.14300
C252        C  0.21571321  0.22982960  0.28725528    -0.20100
C253        C  0.24099328  0.25304134  0.30263643    -0.06600
C254        C  0.26412926  0.27796181  0.28654144     0.14300
C255        C  0.29087802  0.30468985  0.30157613    -0.23400
H256        H  0.27854172  0.29792358  0.24313735     0.15600
H257        H  0.19798022  0.21061927  0.29934763     0.15600
C258        C  0.18593753  0.20461080  0.24155774    -0.23400
H259        H  0.30448540  0.32383062  0.28557360     0.05800
H260        H  0.31661735  0.28624159  0.31331025     0.09000
H261        H  0.27239350  0.32479183  0.31742186     0.09000
H262        H  0.18619554  0.20808853  0.21747445     0.09000
H263        H  0.15389179  0.21293413  0.24922041     0.09000
H264        H  0.19653593  0.17262251  0.24695126     0.05800
C265        C  0.03463626  0.03284503  0.25653589    -0.20000
C266        C  0.50158464  0.02807620  0.24076822    -0.06600
C267        C  0.46995283  0.50311379  0.25506922     0.14300
C268        C  0.47222480  0.50217435  0.28597569    -0.20100
C269        C  0.50895680  0.02840587  0.30309067    -0.06600
C270        C  0.03778894  0.03219283  0.28747679     0.14300
C271        C  0.07597453  0.04261549  0.30209147    -0.23400
H272        H  0.06049909  0.03974079  0.24389936     0.15600
H273        H  0.45106302  0.48706902  0.29845668     0.15600
C274        C  0.43809725  0.48187474  0.24022962    -0.23400
H275        H  0.09834400  0.05068594  0.28575545     0.05800
H276        H  0.09133034  0.01678645  0.31503935     0.09000
H277        H  0.57278948  0.07396313  0.31369881     0.09000
H278        H  0.94286223  0.46423979  0.22612685     0.09000
H279        H  0.41545006  0.50385103  0.22834375     0.09000
H280        H  0.42076510  0.46621047  0.25634807     0.05800
C281        C  0.11859125  0.13860249  0.13933678    -0.20000
C282        C  0.09303108  0.13299177  0.11527515    -0.06600
C283        C  0.09522386  0.15622130  0.08931267     0.14300
C284        C  0.12347654  0.18349048  0.08819772    -0.20100
C285        C  0.14929730  0.18796480  0.11201577    -0.06600
C286        C  0.14658006  0.16587980  0.13797543     0.14300
C287        C  0.17223766  0.17228600  0.16453652    -0.23400
H288        H  0.11666425  0.12169731  0.15943989     0.15600
H289        H  0.12597542  0.20119869  0.06855886     0.15600
C290        C  0.06896206  0.15229241  0.06242190    -0.23400
H291        H  0.16382288  0.15512730  0.18387969     0.05800
H292        H  0.16737291  0.20469403  0.17009503     0.09000
H293        H  0.20519996  0.16247219  0.16003650     0.09000
H294        H  0.03610334  0.16147760  0.06774583     0.09000
H295        H  0.07403814  0.12086556  0.05432363     0.09000
H296        H  0.07635466  0.17186345  0.04415306     0.05800
C297        C  0.13209129  0.39189023  0.10562655    -0.20000
C298        C  0.12069682  0.41317997  0.13142151    -0.06600
C299        C  0.14224511  0.40199373  0.15783016     0.14300
C300        C  0.17252349  0.36810259  0.15795450    -0.20100
C301        C  0.18102007  0.34391923  0.13285308    -0.06600
C302        C  0.16283279  0.35850830  0.10560222     0.14300
C303        C  0.17632108  0.34103933  0.07594288    -0.23400
H304        H  0.11710486  0.40191085  0.08506908     0.15600
H305        H  0.19082229  0.36190968  0.17756897     0.15600
C306        C  0.13334928  0.42501375  0.18610461    -0.23400
H307        H  0.16264894  0.36035142  0.05756531     0.05800
H308        H  0.16624478  0.31146679  0.07254718     0.09000
H309        H  0.21008236  0.33858328  0.07369943     0.09000
H310        H  0.10047896  0.42622481  0.19185535     0.09000
H311        H  0.14087723  0.45589965  0.18366412     0.09000
H312        H  0.15191156  0.41074306  0.20478853     0.05800
C313        C  0.37745294  0.17265436  0.14833348    -0.20000
C314        C  0.37640937  0.14409792  0.12613987    -0.06600
C315        C  0.34518186  0.14942487  0.10475989     0.14300
C316        C  0.31452058  0.18262151  0.10676879    -0.20100
C317        C  0.31291196  0.20999280  0.13045253    -0.06600
C318        C  0.34708342  0.20633613  0.15023019     0.14300
C319        C  0.35436381  0.23746732  0.17280095    -0.23400
H320        H  0.40293038  0.16924282  0.16382607     0.15600
H321        H  0.29226341  0.18726580  0.08910477     0.15600
C322        C  0.34375640  0.11967090  0.08009321    -0.23400
H323        H  0.35547064  0.22412830  0.19517674     0.05800
H324        H  0.33098961  0.26441440  0.17255195     0.09000
H325        H  0.38432457  0.24771454  0.16845205     0.09000
H326        H  0.34233348  0.08941699  0.08937884     0.09000
H327        H  0.37157046  0.11853759  0.06628885     0.09000
H328        H  0.31646576  0.12780309  0.06566709     0.05800
C329        C  0.38624904  0.40493372  0.14235962    -0.20000
C330        C  0.39714594  0.42277720  0.11632706    -0.06600
C331        C  0.37938374  0.41362104  0.08921474     0.14300
C332        C  0.35151304  0.38585543  0.08881156    -0.20100
C333        C  0.34142085  0.36750618  0.11483049    -0.06600
C334        C  0.35856420  0.37725800  0.14188862     0.14300
C335        C  0.34734427  0.35856639  0.17021262    -0.23400
H336        H  0.39972119  0.41249536  0.16309171     0.15600
H337        H  0.33729431  0.37854172  0.06832829     0.15600
C338        C  0.38845273  0.43424448  0.06108820    -0.23400
H339        H  0.36267949  0.37039053  0.18949478     0.05800
H340        H  0.35709017  0.32572769  0.16934940     0.09000
H341        H  0.31367269  0.36490605  0.17358982     0.09000
H342        H  0.42141861  0.42658250  0.05555670     0.09000
H343        H  0.38072829  0.46725584  0.06371006     0.09000
H344        H  0.37023727  0.42505222  0.04229881     0.05800
C345        C  0.11017537  0.13810415  0.95707660    -0.20000
C346        C  0.11415561  0.10971290  0.93400105    -0.06600
C347        C  0.14945651  0.10702399  0.91576363     0.14300
C348        C  0.17750005  0.13409510  0.91997166    -0.20100
C349        C  0.17199252  0.16377102  0.94181343    -0.06600
C350        C  0.13875955  0.16483777  0.96129156     0.14300
C351        C  0.13305447  0.19350982  0.98684649    -0.23400
H352        H  0.08435865  0.13987037  0.97192362     0.15600
H353        H  0.20309599  0.13344952  0.90503155     0.15600
C354        C  0.15799750  0.07677628  0.89121265    -0.23400
H355        H  0.10355620  0.21385933  0.98432363     0.05800
H356        H  0.15824266  0.21192457  0.98883233     0.09000
H357        H  0.13248482  0.17627457  0.00761704     0.09000
H358        H  0.13300678  0.08150687  0.87451965     0.09000
H359        H  0.16100243  0.04586768  0.90025343     0.09000
H360        H  0.18710115  0.07947775  0.87966391     0.05800
C361        C  0.39621891  0.17218699  0.90680796    -0.20000
C362        C  0.38637866  0.13321036  0.91010549    -0.06600
C363        C  0.34533816  0.12690076  0.90520999     0.14300
C364        C  0.31527912  0.15996240  0.90013099    -0.20100
C365        C  0.32358435  0.19950342  0.90309531    -0.06600
C366        C  0.36546000  0.20501583  0.90110387     0.14300
C367        C  0.37901067  0.24229313  0.88847148    -0.23400
H368        H  0.42817212  0.17663606  0.90686667     0.15600
H369        H  0.28472944  0.15466153  0.89408993     0.15600
C370        C  0.33224092  0.08577774  0.90635048    -0.23400
H371        H  0.39977664  0.25500294  0.90406063     0.05800
H372        H  0.39647797  0.23420703  0.86798269     0.09000
H373        H  0.35293421  0.26543112  0.88231487     0.09000
H374        H  0.34193027  0.07104802  0.92762465     0.09000
H375        H  0.34587223  0.06705817  0.88782054     0.09000
H376        H  0.29838769  0.08733130  0.90452598     0.05800
C377        C  0.15723674  0.39867178  0.90180497    -0.20000
C378        C  0.11926207  0.39204055  0.91326607    -0.06600
C379        C  0.11126220  0.35209599  0.91559168     0.14300
C380        C  0.14275554  0.32045603  0.90949489    -0.20100
C381        C  0.18309006  0.32694390  0.90355627    -0.06600
C382        C  0.18857492  0.36681831  0.89578877     0.14300
C383        C  0.22567804  0.37753290  0.87988984    -0.23400
H384        H  0.16259538  0.42906199  0.89725277     0.15600
H385        H  0.13472285  0.29104907  0.90734610     0.15600
C386        C  0.06927036  0.34226600  0.92305493    -0.23400
H387        H  0.23988297  0.39997916  0.89278519     0.05800
H388        H  0.21580530  0.39113180  0.85828320     0.09000
H389        H  0.24949032  0.35166712  0.87550450     0.09000
H390        H  0.04617640  0.35729957  0.90723524     0.09000
H391        H  0.06096219  0.35220375  0.94578947     0.09000
H392        H  0.06812575  0.30950070  0.92203887     0.05800
C393        C  0.33911875  0.37577193  0.91320128    -0.20000
C394        C  0.33556045  0.35765606  0.94060821    -0.06600
C395        C  0.36021369  0.36693201  0.96430844     0.14300
C396        C  0.38831785  0.39403931  0.95988974    -0.20100
C397        C  0.39231720  0.41209817  0.93223234    -0.06600
C398        C  0.36696395  0.40278358  0.90856452     0.14300
C399        C  0.36980496  0.41959707  0.87797852    -0.23400
H400        H  0.32049586  0.36764011  0.89503832     0.15600
H401        H  0.40720924  0.40107312  0.97825386     0.15600
C402        C  0.35728380  0.34878403  0.99431693    -0.23400
H403        H  0.34944154  0.40674168  0.86211640     0.05800
H404        H  0.40172154  0.41245739  0.86978658     0.09000
H405        H  0.36015045  0.45255610  0.87813285     0.09000
H406        H  0.33407307  0.32802517  0.99514064     0.09000
H407        H  0.34846922  0.37300386  0.01059798     0.09000
H408        H  0.38750105  0.33184356  0.00072065     0.05800
C409        C  0.47112053  0.49940833  0.75627349    -0.20000
C410        C  0.00623683  0.00669869  0.74450568    -0.06600
C411        C  0.03067920  0.03035738  0.76032676     0.14300
C412        C  0.02850560  0.03166656  0.79123883    -0.20100
C413        C  0.00199148  0.01003199  0.80683164    -0.06600
C414        C  0.46713806  0.50038817  0.78704764     0.14300
C415        C  0.42645341  0.49377842  0.79974023    -0.23400
H416        H  0.44544768  0.49401174  0.74254372     0.15600
H417        H  0.04741208  0.05001839  0.80324304     0.15600
C418        C  0.05898340  0.05412017  0.74433590    -0.23400
H419        H  0.40392765  0.48879104  0.78230928     0.05800
H420        H  0.41300491  0.52058233  0.81246573     0.09000
H421        H  0.97487720  0.43461176  0.82211114     0.09000
H422        H  0.53644268  0.07651999  0.73043151     0.09000
H423        H  0.08146912  0.03353799  0.73135350     0.09000
H424        H  0.07623261  0.07110976  0.75981341     0.05800
C425        C  0.27942401  0.26888132  0.74892316    -0.20000
C426        C  0.24711355  0.25307588  0.73463129    -0.06600
C427        C  0.21551242  0.24088093  0.75229454     0.14300
C428        C  0.21759243  0.24452257  0.78314966    -0.20100
C429        C  0.25026827  0.25957877  0.79697171    -0.06600
C430        C  0.28128421  0.27226699  0.77969936     0.14300
C431        C  0.31579963  0.29040241  0.79380664    -0.23400
H432        H  0.30351344  0.27893577  0.73599726     0.15600
H433        H  0.19387679  0.23504438  0.79677413     0.15600
C434        C  0.17970918  0.22348510  0.73928364    -0.23400
H435        H  0.33666300  0.30037970  0.77712894     0.05800
H436        H  0.33429018  0.26803258  0.80822549     0.09000
H437        H  0.30306373  0.31688922  0.80714789     0.09000
H438        H  0.19096829  0.19612333  0.72639483     0.09000
H439        H  0.16118147  0.24604189  0.72499848     0.09000
H440        H  0.15898485  0.21475675  0.75655809     0.05800
C441        C  0.36347773  0.09551529  0.63847469    -0.20000
C442        C  0.37340132  0.13338858  0.63119676    -0.06600
C443        C  0.41480062  0.13952808  0.63246160     0.14300
C444        C  0.44520466  0.10660439  0.63753891    -0.20100
C445        C  0.43594012  0.06715222  0.63889444    -0.06600
C446        C  0.39431580  0.06305779  0.64457182     0.14300
C447        C  0.38143666  0.02772353  0.66057463    -0.23400
H448        H  0.33152254  0.09185387  0.64108517     0.15600
H449        H  0.47628615  0.11211514  0.64120973     0.15600
C450        C  0.42728832  0.18038925  0.62780180    -0.23400
H451        H  0.36679326  0.03833508  0.68164908     0.05800
H452        H  0.41044248  0.50506516  0.66552558     0.09000
H453        H  0.35843973  0.01423602  0.64741333     0.09000
H454        H  0.41466015  0.20114309  0.64554045     0.09000
H455        H  0.41568794  0.19254936  0.60613826     0.09000
H456        H  0.46118353  0.17914582  0.62805350     0.05800
C457        C  0.05876904  0.39302965  0.63972805    -0.20000
C458        C  0.06938302  0.43200738  0.63928614    -0.06600
C459        C  0.11178563  0.43496677  0.64272008     0.14300
C460        C  0.14100913  0.40150217  0.63608020    -0.20100
C461        C  0.12929129  0.36373333  0.63061836    -0.06600
C462        C  0.08770904  0.35900686  0.63441456     0.14300
C463        C  0.07324045  0.31859926  0.63237425    -0.23400
H464        H  0.02783999  0.38880023  0.64510589     0.15600
H465        H  0.17336872  0.40437803  0.63695981     0.15600
C466        C  0.12749328  0.47037705  0.65687549    -0.23400
H467        H  0.03932216  0.32115853  0.63409211     0.05800
H468        H  0.08669118  0.29892265  0.65058141     0.09000
H469        H  0.08231790  0.30440576  0.61089042     0.09000
H470        H  0.14387201  0.46031854  0.67759352     0.09000
H471        H  0.10032916  0.99521858  0.66363143     0.09000
H472        H  0.14972564  0.48235371  0.64227642     0.05800
C473        C  0.34964826  0.38136054  0.58783020    -0.20000
C474        C  0.35085768  0.35658207  0.61299723    -0.06600
C475        C  0.37992937  0.36132323  0.63556131     0.14300
C476        C  0.40758647  0.38878726  0.63162376    -0.20100
C477        C  0.40703686  0.41237357  0.60621674    -0.06600
C478        C  0.37715272  0.40942385  0.58439308     0.14300
C479        C  0.37487317  0.43546933  0.55742425    -0.23400
H480        H  0.32734428  0.37860894  0.57059463     0.15600
H481        H  0.42992750  0.39230851  0.64869541     0.15600
C482        C  0.38190149  0.33861608  0.66429862    -0.23400
H483        H  0.35036187  0.42888972  0.54205491     0.05800
H484        H  0.40468471  0.43039139  0.54576379     0.09000
H485        H  0.36801231  0.46752200  0.56379939     0.09000
H486        H  0.39152247  0.30610315  0.66038967     0.09000
H487        H  0.35150285  0.34370402  0.67519240     0.09000
H488        H  0.40456701  0.34857486  0.67984259     0.05800
C489        C  0.10370290  0.09793359  0.62771242    -0.20000
C490        C  0.10025316  0.07958814  0.60029939    -0.06600
C491        C  0.12497887  0.08878051  0.57685573     0.14300
C492        C  0.15144318  0.11761697  0.58112228    -0.20100
C493        C  0.15380277  0.13734045  0.60840672    -0.06600
C494        C  0.12998606  0.12652282  0.63220246     0.14300
C495        C  0.13248686  0.14392962  0.66266824    -0.23400
H496        H  0.08507315  0.08984165  0.64571909     0.15600
H497        H  0.16987753  0.12511699  0.56282239     0.15600
C498        C  0.12373284  0.06890210  0.54728918    -0.23400
H499        H  0.11397480  0.12952024  0.67876192     0.05800
H500        H  0.12037459  0.17642767  0.66247620     0.09000
H501        H  0.16479761  0.13919649  0.67058478     0.09000
H502        H  0.10183197  0.04681200  0.54660813     0.09000
H503        H  0.15470882  0.05296325  0.54191621     0.09000
H504        H  0.11435762  0.09197142  0.53022765     0.05800
O505        O  0.19334597  0.83455793  0.60866517    -0.78200
C506        C  0.32472346  0.82528319  0.61653963     0.82800
O507        O  0.26210542  0.71728354  0.54955210    -0.79300
O508        O  0.33983242  0.69801647  0.64283976    -0.80800
O509        O  0.21867559  0.74035935  0.68845880    -0.80600
O510        O  0.16372688  0.79753881  0.64054922    -0.79200
Zn511      Zn  0.24469128  0.79794052  0.59502982     1.55700
O512        O  0.28174409  0.75678793  0.68979386    -0.80600
Cd513      Cd  0.20372858  0.74510222  0.64411837     1.59700
Cd514      Cd  0.26163518  0.70060928  0.59342370     1.59600
O515        O  0.17427124  0.69726776  0.63195771    -0.80600
O516        O  0.25228367  0.74927845  0.61902126    -1.91100
Cd517      Cd  0.29971788  0.75063095  0.64613307     1.59900
O518        O  0.21384116  0.66708043  0.59650230    -0.80600
O519        O  0.33113145  0.79697538  0.63525621    -0.79200
C520        C  0.25072513  0.75082545  0.53678055     0.83300
C521        C  0.16450798  0.83008841  0.62650406     0.83000
O522        O  0.29309775  0.82893574  0.59982820    -0.78200
C523        C  0.24962304  0.74895808  0.70275861     0.86200
O524        O  0.24129286  0.78338206  0.55130191    -0.78300
C525        C  0.18231680  0.66958763  0.61283871     0.83900
C526        C  0.34178580  0.66724575  0.62634461     0.84200
O527        O  0.31511340  0.66380268  0.60632897    -0.80700
C528        C  0.03483441  0.96648328  0.63732696     0.30300
C529        C  0.47303895  0.53205794  0.63466666     0.30300
C530        C  0.49495512  0.96083072  0.62296814    -0.05900
C531        C  0.02104998  0.98524908  0.66704472    -0.06700
C532        C  0.04398315  0.50561459  0.62049781    -0.06600
C533        C  0.46245931  0.99252331  0.62275444    -0.05900
C534        C  0.49105889  0.51828582  0.66463165    -0.06700
C535        C  0.01298712  0.53882124  0.62069870    -0.06600
C536        C  0.42895471  0.97819353  0.61054330    -0.31900
N537        N  0.43929749  0.93866716  0.60443866     0.14600
C538        C  0.47993240  0.92860442  0.61015170    -0.32000
H539        H  0.49594247  0.89860896  0.60700413     0.16500
C540        C  0.48337318  0.52958182  0.69335299    -0.30900
N541        N  0.00942063  0.50460057  0.71407347     0.13300
C542        C  0.03051969  0.97743065  0.69631820    -0.30900
C543        C  0.02941338  0.56958130  0.60700866    -0.31200
N544        N  0.06911098  0.55676036  0.60019158     0.13800
H545        H  0.01543812  0.60031311  0.60404083     0.16400
C546        C  0.07745128  0.51725763  0.60673557    -0.31200
H547        H  0.10720370  0.49959694  0.60397651     0.16400
H548        H  0.05255110  0.95318998  0.70493629     0.16400
H549        H  0.39830761  0.99424290  0.60850768     0.16500
H550        H  0.46005024  0.55327232  0.70096951     0.16400
O551        O  0.04384159  0.59274036  0.94373320    -0.78200
C552        C  0.41333596  0.59674812  0.91315025     0.82800
O553        O  0.00950531  0.98279698  0.99448904    -0.79300
O554        O  0.42094496  0.96885421  0.91272159    -0.80800
O555        O  0.03635414  0.51753590  0.85448726    -0.80600
O556        O  0.08407684  0.55787278  0.91092951    -0.79200
Zn557      Zn  0.99479932  0.56296997  0.94793202     1.55700
O558        O  0.46755460  0.50369469  0.85167806    -0.80600
Cd559      Cd  0.05121748  0.51277599  0.89904101     1.59700
Cd560      Cd  0.00746293  0.96632242  0.95018558     1.59600
O561        O  0.08555304  0.95924474  0.90087706    -0.80600
O562        O  0.00233542  0.51371434  0.92473763    -1.91100
Cd563      Cd  0.45104024  0.51129355  0.89571779     1.59900
O564        O  0.05920391  0.92713320  0.93744736    -0.80600
O565        O  0.41284692  0.56504559  0.89799325    -0.79200
C566        C  0.00049304  0.51769160  0.00699397     0.83300
C567        C  0.07665433  0.58735365  0.92858991     0.83000
O568        O  0.44156467  0.59987189  0.93205903    -0.78200
C569        C  0.00493691  0.50906784  0.84061078     0.83800
O570        O  0.99140466  0.54957407  0.99162489    -0.78300
C571        C  0.08558691  0.92848656  0.91711312     0.83900
C572        C  0.42592802  0.94072851  0.93168296     0.84200
O573        O  0.45812628  0.93509834  0.94784232    -0.80700
C574        C  0.28286187  0.73317209  0.90521755     0.30300
C575        C  0.21680508  0.79362847  0.90496871     0.30300
C576        C  0.28978099  0.77268184  0.92068091    -0.05900
C577        C  0.26555915  0.74722342  0.87507956    -0.06700
C578        C  0.24404792  0.72410172  0.92162448    -0.06600
C579        C  0.25607547  0.80308646  0.92061764    -0.05900
C580        C  0.23232990  0.77764185  0.87487812    -0.06700
C581        C  0.21028669  0.75460233  0.92146644    -0.06600
C582        C  0.26877180  0.83637747  0.93330943    -0.31900
N583        N  0.30942700  0.82818397  0.93980489     0.14600
C584        C  0.32193326  0.78886467  0.93350132    -0.32000
H585        H  0.35303825  0.77419705  0.93623239     0.16500
C586        C  0.22115050  0.78493882  0.84586118    -0.30900
N587        N  0.24691004  0.75979648  0.82871759     0.13300
C588        C  0.27393463  0.73642532  0.84629369    -0.30900
C589        C  0.17870520  0.73874558  0.93523735    -0.31200
N590        N  0.19132625  0.69976855  0.94185298     0.13800
H591        H  0.14762366  0.75265702  0.93895406     0.16400
C592        C  0.23160440  0.69127813  0.93526537    -0.31200
H593        H  0.24902141  0.66180137  0.93814544     0.16400
H594        H  0.29793976  0.71343227  0.83863167     0.16400
H595        H  0.25076770  0.86573572  0.93530915     0.16500
H596        H  0.19613886  0.80669996  0.83779649     0.16400
O597        O  0.45650546  0.94945275  0.10580486    -0.78200
C598        C  0.49811728  0.52008030  0.03737742     0.82800
O599        O  0.08643123  0.97585345  0.14424652    -0.79300
O600        O  0.03722447  0.60413423  0.10143375    -0.80800
O601        O  0.41098113  0.58047066  0.14304195    -0.80600
O602        O  0.41728106  0.98311433  0.14006104    -0.79200
Zn603      Zn  0.50440624  0.97805291  0.09933691     1.55700
O604        O  0.43523262  0.60861116  0.10355255    -0.80600
Cd605      Cd  0.44944490  0.52682733  0.14763841     1.59700
Cd606      Cd  0.04411598  0.52822386  0.15084804     1.59600
O607        O  0.46524982  0.52134265  0.19177352    -0.80600
O608        O  0.49750904  0.52505689  0.12115773    -1.91100
Cd609      Cd  0.48843236  0.57122756  0.09335215     1.59900
O610        O  0.02828653  0.52902129  0.19515069    -0.80600
O611        O  0.48753081  0.55421495  0.04933711    -0.79200
C612        C  0.08583202  0.94459384  0.12862134     0.83300
C613        C  0.42458974  0.95431029  0.12174748     0.83000
O614        O  0.50682500  0.98875184  0.05529409    -0.78200
C615        C  0.40931424  0.60863597  0.12422462     0.83800
O616        O  0.05640538  0.94111769  0.11086739    -0.78300
C617        C  0.49787756  0.52497867  0.20602984     0.83900
C618        C  0.06595200  0.60321659  0.12036512     0.84200
O619        O  0.07150148  0.57758072  0.14113319    -0.80700
C620        C  0.21543423  0.80687893  0.13522275     0.30300
C621        C  0.27776040  0.74360935  0.13399592     0.30300
C622        C  0.25611573  0.81541104  0.12313483    -0.05900
C623        C  0.22757522  0.78675275  0.16545451    -0.06700
C624        C  0.20666588  0.77074111  0.11721200    -0.06600
C625        C  0.28785809  0.78357352  0.12239545    -0.05900
C626        C  0.25933064  0.75431703  0.16451249    -0.06700
C627        C  0.23854157  0.73788601  0.11655135    -0.06600
C628        C  0.32344775  0.79964439  0.11790895    -0.31900
N629        N  0.31351175  0.84000347  0.11591718     0.14600
C630        C  0.27261632  0.85000292  0.11917489    -0.32000
H631        H  0.25682484  0.88034101  0.12151279     0.16500
C632        C  0.26432579  0.73848182  0.19242587    -0.30900
N633        N  0.23703017  0.76028133  0.21038206     0.13300
C634        C  0.21379477  0.78902430  0.19425418    -0.30900
C635        C  0.21921437  0.70413868  0.11513570    -0.31200
N636        N  0.17833777  0.71535544  0.11353797     0.13800
H637        H  0.23343834  0.67353937  0.11901253     0.16400
C638        C  0.17021139  0.75550011  0.11553051    -0.31200
H639        H  0.13996075  0.77215725  0.11900631     0.16400
H640        H  0.18873040  0.80954714  0.20327851     0.16400
H641        H  0.35446479  0.78384489  0.11904864     0.16500
H642        H  0.28629125  0.71316236  0.19939187     0.16400
C643        C  0.46119735  0.53030069  0.40972652     0.30300
C644        C  0.02994964  0.97386316  0.41042464     0.30300
C645        C  0.45473365  0.48893589  0.42037851    -0.05900
C646        C  0.48066578  0.52249734  0.37902469    -0.06700
C647        C  0.99769467  0.53950482  0.42943206    -0.06600
C648        C  0.48896227  0.96217931  0.41549909    -0.05900
C649        C  0.01163961  0.49135043  0.38018304    -0.06700
C650        C  0.03179037  0.50875557  0.42831297    -0.06600
C651        C  0.47633074  0.92589802  0.42102739    -0.31900
N652        N  0.43512624  0.93219707  0.42449157     0.14600
C653        C  0.42148437  0.97192342  0.42120975    -0.32000
H654        H  0.38962884  0.48491730  0.42771374     0.16500
C655        C  0.03159010  0.99440061  0.35238201    -0.30900
N656        N  0.50278668  0.51788075  0.33288045     0.13300
C657        C  0.47427838  0.53794462  0.35099560    -0.30900
C658        C  0.06626036  0.52774311  0.42930661    -0.31200
N659        N  0.05487264  0.56746179  0.43225533     0.13800
H660        H  0.09726671  0.51435885  0.42408494     0.16400
C661        C  0.01368003  0.57526447  0.43114124    -0.31200
H662        H  0.99689707  0.60498678  0.42764242     0.16400
H663        H  0.45031999  0.56152432  0.34402701     0.16400
H664        H  0.49528309  0.89681529  0.42124495     0.16500
H665        H  0.05655941  0.97345371  0.34360970     0.16400
O666        O  0.19827297  0.67621959  0.44189286    -0.78200
C667        C  0.32477305  0.65917406  0.41829416     0.82800
O668        O  0.24252240  0.78500864  0.49080320    -0.79300
O669        O  0.33021555  0.78488690  0.40520752    -0.80800
O670        O  0.20963448  0.75160727  0.35057453    -0.80600
O671        O  0.16262202  0.70665639  0.40427793    -0.79200
Zn672      Zn  0.24826586  0.70267047  0.44737954     1.55700
O673        O  0.27724311  0.74944040  0.35075197    -0.80600
Cd674      Cd  0.19539253  0.75263280  0.39502493     1.59700
Cd675      Cd  0.24305754  0.79691029  0.44588814     1.59600
O676        O  0.15840439  0.80657628  0.40202571    -0.80600
O677        O  0.24494842  0.74805177  0.42105504    -1.91100
Cd678      Cd  0.29339156  0.74253060  0.39469266     1.59900
O679        O  0.19272580  0.83765459  0.43494610    -0.80600
O680        O  0.32708971  0.68669581  0.39950927    -0.79200
C681        C  0.24834650  0.75152451  0.50431273     0.83300
C682        C  0.16775313  0.67988430  0.42428454     0.83000
O683        O  0.29706007  0.66188430  0.43786528    -0.78200
C684        C  0.24327203  0.75183919  0.33690140     0.83800
O685        O  0.25217838  0.71833169  0.49038391    -0.78300
C686        C  0.16208515  0.83712389  0.41784998     0.83900
C687        C  0.32569652  0.81516244  0.42225606     0.84200
O688        O  0.29407344  0.82338388  0.43832676    -0.80700
C689        C  0.12424659  0.63476356  0.40110701    -0.20000
C690        C  0.13773424  0.65185260  0.42689024    -0.06600
C691        C  0.12245339  0.64180799  0.45452215     0.14300
C692        C  0.09442152  0.61433278  0.45564197    -0.20100
C693        C  0.08194968  0.59664796  0.42995240    -0.06600
C694        C  0.09675038  0.60683380  0.40241433     0.14300
C695        C  0.08338631  0.58812360  0.37459069    -0.23400
H696        H  0.13596914  0.64261890  0.37998018     0.15600
H697        H  0.08245985  0.60611167  0.47658326     0.15600
C698        C  0.13463456  0.66075815  0.48269032    -0.23400
H699        H  0.09728490  0.60002395  0.35485807     0.05800
H700        H  0.04948172  0.59459327  0.37234503     0.09000
H701        H  0.09288786  0.55514588  0.37516542     0.09000
H702        H  0.12836022  0.69394949  0.48081917     0.09000
H703        H  0.16769699  0.65120173  0.48740484     0.09000
H704        H  0.11715878  0.65190146  0.50174407     0.05800
C705        C  0.09382099  0.93598765  0.43423178    -0.20000
C706        C  0.06546749  0.93891500  0.41065017    -0.06600
C707        C  0.06799233  0.90607518  0.39066032     0.14300
C708        C  0.10073202  0.87460679  0.39308270    -0.20100
C709        C  0.12978487  0.87284170  0.41600915    -0.06600
C710        C  0.12594129  0.90415374  0.43705737     0.14300
C711        C  0.15434151  0.90422758  0.46331882    -0.23400
H712        H  0.09002576  0.95761222  0.45186664     0.15600
H713        H  0.10258407  0.85034345  0.37723246     0.15600
C714        C  0.03593301  0.90082760  0.36759261    -0.23400
H715        H  0.14541424  0.93046114  0.47792123     0.05800
H716        H  0.18607721  0.90585631  0.45585359     0.09000
H717        H  0.15358519  0.87681409  0.47674126     0.09000
H718        H  0.04973266  0.90067604  0.34536155     0.09000
H719        H  0.51217075  0.92872166  0.36287996     0.09000
H720        H  0.02481094  0.87160127  0.37107239     0.05800
C721        C  0.41855694  0.58645180  0.43753038    -0.20000
C722        C  0.42246654  0.56114993  0.41260567    -0.06600
C723        C  0.38851093  0.56362872  0.39278541     0.14300
C724        C  0.35698168  0.59630691  0.39491975    -0.20100
C725        C  0.35629647  0.62386908  0.41799926    -0.06600
C726        C  0.38628223  0.61795988  0.44026392     0.14300
C727        C  0.38493044  0.64557122  0.46650497    -0.23400
H728        H  0.44075778  0.58180940  0.45526804     0.15600
H729        H  0.33223658  0.59981925  0.37883899     0.15600
C730        C  0.38275847  0.53203167  0.37018157    -0.23400
H731        H  0.41138305  0.63701842  0.48162680     0.05800
H732        H  0.35636366  0.64438586  0.47909590     0.09000
H733        H  0.38571452  0.67682258  0.45901756     0.09000
H734        H  0.40687511  0.50558975  0.37082750     0.09000
H735        H  0.38150462  0.54526359  0.34777306     0.09000
H736        H  0.35324095  0.52078511  0.37432021     0.05800
C737        C  0.41431844  0.87180369  0.40350991    -0.20000
C738        C  0.40983104  0.90120385  0.42548096    -0.06600
C739        C  0.38052224  0.90016312  0.44769241     0.14300
C740        C  0.35460932  0.87081511  0.44646748    -0.20100
C741        C  0.35726133  0.84238746  0.42351936    -0.06600
C742        C  0.38850959  0.84229920  0.40209871     0.14300
C743        C  0.39466072  0.81233818  0.37724001    -0.23400
H744        H  0.43752936  0.87284271  0.38683745     0.15600
H745        H  0.33174970  0.87054150  0.46347947     0.15600
C746        C  0.37723631  0.92927700  0.47305209    -0.23400
H747        H  0.42037886  0.81756031  0.36272472     0.05800
H748        H  0.36654093  0.81473802  0.36336126     0.09000
H749        H  0.40220039  0.78149421  0.38623435     0.09000
H750        H  0.40737934  0.92751622  0.48443248     0.09000
H751        H  0.35427103  0.92252510  0.48939447     0.09000
H752        H  0.36750658  0.96031677  0.46513549     0.05800
C753        C  0.27160854  0.76982689  0.25688481    -0.20000
C754        C  0.23803087  0.75816667  0.24191278    -0.06600
C755        C  0.20607038  0.74508436  0.25791761     0.14300
C756        C  0.20865785  0.74337205  0.28877483    -0.20100
C757        C  0.24255389  0.75462819  0.30411503    -0.06600
C758        C  0.27428737  0.76865777  0.28773239     0.14300
C759        C  0.31050485  0.78367061  0.30223424    -0.23400
H760        H  0.29566495  0.78032766  0.24415717     0.15600
H761        H  0.18418971  0.73268369  0.30092185     0.15600
C762        C  0.16991203  0.73190383  0.24230470    -0.23400
H763        H  0.33042475  0.79588388  0.28592236     0.05800
H764        H  0.32979139  0.75876086  0.31391595     0.09000
H765        H  0.29961299  0.80814517  0.31792437     0.09000
H766        H  0.18077144  0.70637398  0.22753890     0.09000
H767        H  0.15352755  0.75705909  0.22913238     0.09000
H768        H  0.14773185  0.72197469  0.25801755     0.05800
C769        C  0.02626480  0.53707816  0.25701441    -0.20000
C770        C  0.49807246  0.52289905  0.23893577    -0.06600
C771        C  0.46840218  0.02016831  0.25868657     0.14300
C772        C  0.47275488  0.02043100  0.28943438    -0.20100
C773        C  0.50168541  0.52013254  0.30130906    -0.06600
C774        C  0.02822093  0.53519874  0.28789926     0.14300
C775        C  0.06121020  0.55286038  0.30413854    -0.23400
H776        H  0.04933269  0.55062662  0.24532308     0.15600
H777        H  0.44773205  0.01398782  0.30316829     0.15600
C778        C  0.42827720  0.01102973  0.24610567    -0.23400
H779        H  0.08210302  0.56564597  0.28886643     0.05800
H780        H  0.07983742  0.52943922  0.31766015     0.09000
H781        H  0.54417539  0.58418069  0.31597667     0.09000
H782        H  0.93089700  0.98159837  0.23115946     0.09000
H783        H  0.41303409  0.03713686  0.23331277     0.09000
H784        H  0.40662716  0.00485649  0.26359897     0.05800
C785        C  0.10055543  0.65580207  0.14274502    -0.20000
C786        C  0.09407273  0.63274017  0.11795091    -0.06600
C787        C  0.11529892  0.63739842  0.09155356     0.14300
C788        C  0.14281670  0.66524144  0.09065823    -0.20100
C789        C  0.14882416  0.68858103  0.11527190    -0.06600
C790        C  0.12763554  0.68408512  0.14161308     0.14300
C791        C  0.13462925  0.70821113  0.16860686    -0.23400
H792        H  0.08423146  0.65177832  0.16292191     0.15600
H793        H  0.15991162  0.66892116  0.07078728     0.15600
C794        C  0.11022342  0.61207917  0.06476313    -0.23400
H795        H  0.11727769  0.69928199  0.18779074     0.05800
H796        H  0.12440523  0.74056947  0.16447290     0.09000
H797        H  0.16777674  0.70356578  0.17439154     0.09000
H798        H  0.07835548  0.61876405  0.05616740     0.09000
H799        H  0.11714888  0.57977918  0.07056741     0.09000
H800        H  0.13127012  0.61796072  0.04683055     0.05800
C801        C  0.13267151  0.89021099  0.10508921    -0.20000
C802        C  0.12033968  0.91142668  0.13075121    -0.06600
C803        C  0.14141608  0.90077333  0.15741725     0.14300
C804        C  0.17269870  0.86785986  0.15784512    -0.20100
C805        C  0.18231657  0.84369328  0.13292732    -0.06600
C806        C  0.16416582  0.85744498  0.10545966     0.14300
C807        C  0.17839051  0.83964577  0.07603283    -0.23400
H808        H  0.11785934  0.89981430  0.08438906     0.15600
H809        H  0.19087416  0.86255208  0.17756417     0.15600
C810        C  0.13082436  0.92320108  0.18573955    -0.23400
H811        H  0.16393025  0.85794767  0.05740041     0.05800
H812        H  0.16985469  0.80934908  0.07308004     0.09000
H813        H  0.21200449  0.83861922  0.07374742     0.09000
H814        H  0.09782829  0.92349340  0.19075015     0.09000
H815        H  0.13763647  0.95440280  0.18387806     0.09000
H816        H  0.14889377  0.90901173  0.20467341     0.05800
C817        C  0.37796342  0.67053532  0.14908381    -0.20000
C818        C  0.37634998  0.64265859  0.12645722    -0.06600
C819        C  0.34493930  0.64897402  0.10525530     0.14300
C820        C  0.31453966  0.68228467  0.10794603    -0.20100
C821        C  0.31384409  0.70935074  0.13179007    -0.06600
C822        C  0.34833852  0.70483305  0.15129125     0.14300
C823        C  0.35696873  0.73580354  0.17362339    -0.23400
H824        H  0.40360740  0.66638083  0.16442734     0.15600
H825        H  0.29170226  0.68732424  0.09066154     0.15600
C826        C  0.34318530  0.62027679  0.07993706    -0.23400
H827        H  0.35760379  0.72283943  0.19610662     0.05800
H828        H  0.33472591  0.76363745  0.17309012     0.09000
H829        H  0.38751449  0.74470094  0.16915910     0.09000
H830        H  0.34150193  0.58970792  0.08853029     0.09000
H831        H  0.37100787  0.61947357  0.06617512     0.09000
H832        H  0.31593729  0.62923628  0.06562010     0.05800
C833        C  0.37780564  0.91340258  0.14531789    -0.20000
C834        C  0.39563054  0.92515423  0.11937835    -0.06600
C835        C  0.38563623  0.90869684  0.09199360     0.14300
C836        C  0.35887242  0.88000963  0.09150377    -0.20100
C837        C  0.34182631  0.86804393  0.11747757    -0.06600
C838        C  0.35091339  0.88493972  0.14464205     0.14300
C839        C  0.33235405  0.87259984  0.17281565    -0.23400
H840        H  0.38536666  0.92613973  0.16622084     0.15600
H841        H  0.35066508  0.86711845  0.07082580     0.15600
C842        C  0.40155636  0.92224847  0.06318017    -0.23400
H843        H  0.34345648  0.88810696  0.19220696     0.05800
H844        H  0.34066128  0.83977327  0.17612853     0.09000
H845        H  0.29844505  0.88022778  0.17185356     0.09000
H846        H  0.43529368  0.91354557  0.06198426     0.09000
H847        H  0.39372117  0.95531915  0.06102912     0.09000
H848        H  0.38788056  0.90832043  0.04404708     0.05800
C849        C  0.10778872  0.63798459  0.95816305    -0.20000
C850        C  0.10699535  0.61585615  0.93183035    -0.06600
C851        C  0.13488275  0.62191106  0.90913373     0.14300
C852        C  0.16306139  0.64866586  0.91378854    -0.20100
C853        C  0.16402539  0.67024803  0.94009453    -0.06600
C854        C  0.13577998  0.66530964  0.96243305     0.14300
C855        C  0.13471611  0.68831332  0.99087551    -0.23400
H856        H  0.08653358  0.63391825  0.97564561     0.15600
H857        H  0.18402931  0.65384515  0.89638165     0.15600
C858        C  0.13440178  0.60191028  0.87940903    -0.23400
H859        H  0.10415427  0.70675090  0.99345102     0.05800
H860        H  0.15842561  0.70852813  0.99195024     0.09000
H861        H  0.14014992  0.66700349  0.00955580     0.09000
H862        H  0.10325502  0.60837246  0.86945829     0.09000
H863        H  0.14368521  0.56904698  0.88162668     0.09000
H864        H  0.15618084  0.61292847  0.86388255     0.05800
C865        C  0.39081721  0.66950656  0.90441156    -0.20000
C866        C  0.38035529  0.63091132  0.90826534    -0.06600
C867        C  0.33892899  0.62534514  0.90463257     0.14300
C868        C  0.30908874  0.65898167  0.90064185    -0.20100
C869        C  0.31852835  0.69828491  0.90293883    -0.06600
C870        C  0.36044682  0.70275410  0.89931296     0.14300
C871        C  0.37418814  0.73918417  0.88547707    -0.23400
H872        H  0.42292444  0.67327406  0.90340524     0.15600
H873        H  0.27809991  0.65430958  0.89540955     0.15600
C874        C  0.32549890  0.58440497  0.90577594    -0.23400
H875        H  0.39621412  0.75176130  0.90011869     0.05800
H876        H  0.39031449  0.73010020  0.86461695     0.09000
H877        H  0.34832807  0.76269455  0.87962206     0.09000
H878        H  0.33587185  0.56928155  0.92677950     0.09000
H879        H  0.33843931  0.56589872  0.88693051     0.09000
H880        H  0.29156954  0.58630048  0.90452798     0.05800
C881        C  0.15524503  0.90015512  0.90008842    -0.20000
C882        C  0.11732864  0.89347388  0.91157326    -0.06600
C883        C  0.10923479  0.85360026  0.91392056     0.14300
C884        C  0.14074789  0.82208966  0.90789966    -0.20100
C885        C  0.18125244  0.82870036  0.90283630    -0.06600
C886        C  0.18669606  0.86830587  0.89451301     0.14300
C887        C  0.22346625  0.87851600  0.87806584    -0.23400
H888        H  0.16046222  0.93052057  0.89522869     0.15600
H889        H  0.13274882  0.79257758  0.90518043     0.15600
C890        C  0.06722553  0.84380879  0.92135930    -0.23400
H891        H  0.23709063  0.90198135  0.89019361     0.05800
H892        H  0.21332521  0.89084122  0.85613544     0.09000
H893        H  0.24751472  0.85260031  0.87429643     0.09000
H894        H  0.04414581  0.85884548  0.90553662     0.09000
H895        H  0.05889491  0.85376780  0.94408549     0.09000
H896        H  0.06610477  0.81103223  0.92036589     0.05800
C897        C  0.33072211  0.88910888  0.91968735    -0.20000
C898        C  0.33647790  0.85835987  0.94072808    -0.06600
C899        C  0.37061992  0.85603045  0.95992954     0.14300
C900        C  0.39893455  0.88331442  0.95659148    -0.20100
C901        C  0.39375410  0.91368208  0.93487284    -0.06600
C902        C  0.35814870  0.91694401  0.91660268     0.14300
C903        C  0.34836998  0.94890709  0.89327245    -0.23400
H904        H  0.30512146  0.89038521  0.90458885     0.15600
H905        H  0.42529113  0.88068308  0.97123500     0.15600
C906        C  0.37761022  0.82571823  0.98443307    -0.23400
H907        H  0.31904225  0.94658613  0.88162578     0.05800
H908        H  0.37284770  0.94583160  0.87639869     0.09000
H909        H  0.34508964  0.97913243  0.90351999     0.09000
H910        H  0.35228943  0.80753432  0.98640404     0.09000
H911        H  0.37986467  0.84150388  0.00571978     0.09000
H912        H  0.40671070  0.80528157  0.98064886     0.05800
C913        C  0.47931551  0.98319581  0.76100730    -0.20000
C914        C  0.00954961  0.50496682  0.74562154    -0.06600
C915        C  0.03262319  0.52982577  0.76153503     0.14300
C916        C  0.03081858  0.53032810  0.79244410    -0.20100
C917        C  0.00581330  0.50688942  0.80782230    -0.06600
C918        C  0.47705745  0.98430313  0.79192424     0.14300
C919        C  0.44929112  0.95875704  0.80685742    -0.23400
H920        H  0.46098348  0.96480882  0.74850740     0.15600
H921        H  0.04854220  0.54963985  0.80460071     0.15600
C922        C  0.05894807  0.55577439  0.74567669    -0.23400
H923        H  0.43455375  0.94034343  0.79081180     0.05800
H924        H  0.42432711  0.97810053  0.81852646     0.09000
H925        H  0.96713901  0.93996573  0.82140642     0.09000
H926        H  0.57359790  0.54744175  0.73071514     0.09000
H927        H  0.08217865  0.53667552  0.73226910     0.09000
H928        H  0.07530068  0.57344377  0.76126842     0.05800
C929        C  0.26044786  0.78449451  0.74930206    -0.20000
C930        C  0.24792024  0.75107040  0.73528291    -0.06600
C931        C  0.23431626  0.72063822  0.75254927     0.14300
C932        C  0.23406229  0.72430229  0.78337075    -0.20100
C933        C  0.24610809  0.75794535  0.79718655    -0.06600
C934        C  0.25923547  0.78845591  0.78005445     0.14300
C935        C  0.27279293  0.82467145  0.79439877    -0.23400
H936        H  0.27078921  0.80783256  0.73609231     0.15600
H937        H  0.22443373  0.70090787  0.79688189     0.15600
C938        C  0.22143788  0.68367990  0.73873327    -0.23400
H939        H  0.28327840  0.84523612  0.77791618     0.05800
H940        H  0.29858395  0.81505213  0.80986370     0.09000
H941        H  0.24689152  0.84164312  0.80670510     0.09000
H942        H  0.24676843  0.66817799  0.72508876     0.09000
H943        H  0.19375548  0.69206133  0.72478069     0.09000
H944        H  0.21377379  0.66215861  0.75561246     0.05800
C945        C  0.36575825  0.59596619  0.63790699    -0.20000
C946        C  0.37552083  0.63403143  0.63122179    -0.06600
C947        C  0.41692817  0.64025196  0.63253692     0.14300
C948        C  0.44750230  0.60707552  0.63638394    -0.20100
C949        C  0.43814485  0.56764513  0.63707797    -0.06600
C950        C  0.39671227  0.56353249  0.64348452     0.14300
C951        C  0.38429949  0.52844691  0.66010173    -0.23400
H952        H  0.33387214  0.59220115  0.64077465     0.15600
H953        H  0.47858277  0.61237015  0.64014755     0.15600
C954        C  0.42917681  0.68147581  0.62948814    -0.23400
H955        H  0.37045644  0.53939479  0.68135566     0.05800
H956        H  0.40747577  0.00434141  0.66624087     0.09000
H957        H  0.36075709  0.51485952  0.64758048     0.09000
H958        H  0.41660486  0.70084717  0.64801261     0.09000
H959        H  0.41733758  0.69516451  0.60832890     0.09000
H960        H  0.46305372  0.68037564  0.62976236     0.05800
C961        C  0.05996776  0.89136916  0.63881113    -0.20000
C962        C  0.06954988  0.93062412  0.63992707    -0.06600
C963        C  0.11156340  0.93453253  0.64477934     0.14300
C964        C  0.14191410  0.90166657  0.63884997    -0.20100
C965        C  0.13141273  0.86385255  0.63188962    -0.06600
C966        C  0.08985557  0.85821032  0.63347308     0.14300
C967        C  0.07644084  0.81766697  0.62893665    -0.23400
H968        H  0.02933176  0.88603545  0.64365327     0.15600
H969        H  0.17402193  0.90513905  0.64100904     0.15600
C970        C  0.12567549  0.97081075  0.65890004    -0.23400
H971        H  0.04247816  0.81960416  0.62891756     0.05800
H972        H  0.08857366  0.79692354  0.64690802     0.09000
H973        H  0.08769286  0.80507208  0.60740503     0.09000
H974        H  0.14087308  0.96175042  0.68022871     0.09000
H975        H  0.10274284  0.49481740  0.66282982     0.09000
H976        H  0.14849461  0.98270966  0.64477292     0.05800
C977        C  0.35127162  0.88117346  0.58978962    -0.20000
C978        C  0.35481375  0.85437654  0.61388373    -0.06600
C979        C  0.38706157  0.85614064  0.63463970     0.14300
C980        C  0.41434557  0.88383560  0.63044174    -0.20100
C981        C  0.41087721  0.91008076  0.60634555    -0.06600
C982        C  0.37884047  0.90899521  0.58585773     0.14300
C983        C  0.37436018  0.93644354  0.55956813    -0.23400
H984        H  0.32695222  0.88028728  0.57374305     0.15600
H985        H  0.43855663  0.88559727  0.64645223     0.15600
C986        C  0.39320207  0.82981956  0.66167052    -0.23400
H987        H  0.34851910  0.93070993  0.54512218     0.05800
H988        H  0.40297131  0.93173901  0.54644483     0.09000
H989        H  0.36820281  0.96817913  0.56677265     0.09000
H990        H  0.40072203  0.79784857  0.65514782     0.09000
H991        H  0.36511734  0.83433541  0.67537041     0.09000
H992        H  0.41897534  0.83692336  0.67567381     0.05800
C993        C  0.11678188  0.58893779  0.62977804    -0.20000
C994        C  0.09963881  0.58299888  0.60206076    -0.06600
C995        C  0.11032533  0.60491763  0.57766824     0.14300
C996        C  0.13809230  0.63254550  0.58157764    -0.20100
C997        C  0.15434160  0.63933775  0.60955512    -0.06600
C998        C  0.14377434  0.61699455  0.63391869     0.14300
C999        C  0.16141957  0.62203133  0.66418058    -0.23400
H1000       H  0.10801881  0.57203271  0.64839812     0.15600
H1001       H  0.14633432  0.64954506  0.56283328     0.15600
C1002       C  0.09260981  0.59978211  0.54756517    -0.23400
H1003       H  0.15118100  0.60080395  0.68028321     0.05800
H1004       H  0.15133964  0.65289618  0.67238102     0.09000
H1005       H  0.19545393  0.61632319  0.66333421     0.09000
H1006       H  0.07154374  0.57691250  0.54715403     0.09000
H1007       H  0.11784247  0.59019207  0.53188138     0.09000
H1008       H  0.07512015  0.62874121  0.54014030     0.05800
O1009       O  0.69371607  0.33477599  0.60615353    -0.78200
C1010       C  0.82511897  0.32491477  0.61381566     0.82800
O1011       O  0.76116246  0.21547254  0.54890833    -0.79300
O1012       O  0.84046521  0.19724728  0.63979395    -0.80800
O1013       O  0.72050914  0.24015548  0.68728944    -0.80600
O1014       O  0.66572769  0.29993994  0.64027132    -0.79200
Zn1015     Zn  0.74495338  0.29745554  0.59327237     1.55700
O1016       O  0.78403218  0.25549227  0.68791015    -0.80600
Cd1017     Cd  0.70445861  0.24674307  0.64318413     1.59700
Cd1018     Cd  0.76015006  0.19948323  0.59278505     1.59600
O1019       O  0.67217986  0.20171477  0.63003624    -0.80600
O1020       O  0.75255709  0.24912116  0.61758190    -1.91100
Cd1021     Cd  0.80069084  0.25001331  0.64390273     1.59900
O1022       O  0.71081439  0.16782052  0.59606623    -0.80600
O1023       O  0.83152706  0.29665756  0.63258996    -0.79200
C1024       C  0.75002819  0.24895642  0.53601011     0.83300
C1025       C  0.66572004  0.33150820  0.62495064     0.83000
O1026       O  0.79338501  0.32855039  0.59722683    -0.78200
C1027       C  0.75211556  0.24785165  0.70126421     0.86200
O1028       O  0.74106286  0.28175821  0.55023283    -0.78300
C1029       C  0.67835187  0.17312258  0.61154379     0.83900
C1030       C  0.84101346  0.16572600  0.62423122     0.84200
O1031       O  0.81300014  0.16158626  0.60540597    -0.80700
C1032       C  0.53561784  0.46808450  0.63476096     0.30300
C1033       C  0.97405639  0.03202651  0.63559372     0.30300
C1034       C  0.99406882  0.46200601  0.62269225    -0.05900
C1035       C  0.52240764  0.48602884  0.66482293    -0.06700
C1036       C  0.54299306  0.00710561  0.62079235    -0.06600
C1037       C  0.96258039  0.49456973  0.62320520    -0.05900
C1038       C  0.99074354  0.01847087  0.66610983    -0.06700
C1039       C  0.51016807  0.03848691  0.62007341    -0.06600
C1040       C  0.92803833  0.48108163  0.61162393    -0.31900
N1041       N  0.93733520  0.44160521  0.60465637     0.14600
C1042       C  0.97812072  0.43086029  0.60930027    -0.32000
H1043       H  0.99374497  0.40098245  0.60505221     0.16500
C1044       C  0.98263281  0.03047947  0.69475634    -0.30900
N1045       N  0.50526107  0.00454569  0.71415344     0.13300
C1046       C  0.53316253  0.47819461  0.69387148    -0.30900
C1047       C  0.52335261  0.06936751  0.60460863    -0.31200
N1048       N  0.56383731  0.05981349  0.59878036     0.13800
H1049       H  0.50638126  0.09863405  0.60007227     0.16400
C1050       C  0.57544595  0.02104280  0.60691534    -0.31200
H1051       H  0.60632519  0.00558606  0.60492952     0.16400
H1052       H  0.55572854  0.45403890  0.70196634     0.16400
H1053       H  0.89763562  0.49777078  0.61056297     0.16500
H1054       H  0.96016676  0.05520074  0.70193748     0.16400
O1055       O  0.54877052  0.08968275  0.94580105    -0.78200
C1056       C  0.91865021  0.10021323  0.91585210     0.82800
O1057       O  0.50908107  0.48281625  0.99278490    -0.79300
O1058       O  0.92189586  0.46709196  0.91048901    -0.80800
O1059       O  0.53373765  0.01882294  0.85419110    -0.80600
O1060       O  0.58587489  0.05594132  0.91099717    -0.79200
Zn1061     Zn  0.49734884  0.06299368  0.94864213     1.55700
O1062       O  0.96975690  0.00649200  0.85387915    -0.80600
Cd1063     Cd  0.55067175  0.01291359  0.89844523     1.59700
Cd1064     Cd  0.50598115  0.46510841  0.94878900     1.59600
O1065       O  0.58463902  0.45741065  0.90015261    -0.80600
O1066       O  0.50299300  0.01393716  0.92519172    -1.91100
Cd1067     Cd  0.95361011  0.01370361  0.89804238     1.59900
O1068       O  0.55742468  0.42494615  0.93604869    -0.80600
O1069       O  0.91746631  0.06827286  0.90109419    -0.79200
C1070       C  0.50131262  0.01736191  0.00724869     0.83300
C1071       C  0.58118512  0.08369779  0.93022852     0.83000
O1072       O  0.94729898  0.10341463  0.93446365    -0.78200
C1073       C  0.50176470  0.01044755  0.84091704     0.83800
O1074       O  0.49234022  0.04931021  0.99197219    -0.78300
C1075       C  0.58439659  0.42641357  0.91611907     0.83900
C1076       C  0.92600872  0.43966103  0.92997106     0.84200
O1077       O  0.95715981  0.43494868  0.94719041    -0.80700
C1078       C  0.78491995  0.23335164  0.90445666     0.30300
C1079       C  0.71702189  0.29197174  0.90328844     0.30300
C1080       C  0.79005716  0.27316356  0.91981067    -0.05900
C1081       C  0.76777001  0.24655466  0.87404952    -0.06700
C1082       C  0.74645860  0.22326466  0.92064921    -0.06600
C1083       C  0.75568996  0.30280272  0.91920048    -0.05900
C1084       C  0.73360532  0.27604955  0.87336808    -0.06700
C1085       C  0.71152755  0.25246296  0.91975092    -0.06600
C1086       C  0.76754390  0.33670597  0.93169496    -0.31900
N1087       N  0.80800850  0.32912484  0.93890614     0.14600
C1088       C  0.82132091  0.28990339  0.93313040    -0.32000
H1089       H  0.85251754  0.27576161  0.93645691     0.16500
C1090       C  0.72288896  0.28263119  0.84416682    -0.30900
N1091       N  0.74974725  0.25800229  0.82741218     0.13300
C1092       C  0.77709238  0.23567407  0.84538947    -0.30900
C1093       C  0.68065360  0.23501343  0.93321649    -0.31200
N1094       N  0.69539560  0.19685547  0.94111989     0.13800
H1095       H  0.64887898  0.24719924  0.93608337     0.16400
C1096       C  0.73591524  0.19039573  0.93528101    -0.31200
H1097       H  0.75506286  0.16216272  0.93966468     0.16400
H1098       H  0.80196214  0.21333163  0.83809004     0.16400
H1099       H  0.74922642  0.36595748  0.93315737     0.16500
H1100       H  0.69751646  0.30363985  0.83570978     0.16400
O1101       O  0.95783011  0.44863791  0.10514824    -0.78200
C1102       C  0.99832984  0.01947326  0.03933735     0.82800
O1103       O  0.58766632  0.47763256  0.14298085    -0.79300
O1104       O  0.53510538  0.10588221  0.10225081    -0.80800
O1105       O  0.91089085  0.08112780  0.14440230    -0.80600
O1106       O  0.91630801  0.48302326  0.13789357    -0.79200
Zn1107     Zn  0.00513799  0.47837324  0.09926985     1.55700
O1108       O  0.93498312  0.10743341  0.10409891    -0.80600
Cd1109     Cd  0.94899273  0.02739901  0.15013452     1.59700
Cd1110     Cd  0.54613701  0.02767127  0.14916559     1.59600
O1111       O  0.96492172  0.02335284  0.19454084    -0.80600
O1112       O  0.99694012  0.02439841  0.12333816    -1.91100
Cd1113     Cd  0.98843458  0.07028229  0.09536239     1.59900
O1114       O  0.53255211  0.03080364  0.19354382    -0.80600
O1115       O  0.98918343  0.05370213  0.05138172    -0.79200
C1116       C  0.58752094  0.44610143  0.12757809     0.83300
C1117       C  0.92507655  0.45373831  0.12020651     0.83000
O1118       O  0.00738963  0.48924166  0.05513153    -0.78200
C1119       C  0.90912358  0.10835412  0.12482482     0.83800
O1120       O  0.55821089  0.44235336  0.10972790    -0.78300
C1121       C  0.99801186  0.02609545  0.20855342     0.83900
C1122       C  0.56585400  0.10381324  0.11952565     0.84200
O1123       O  0.57403421  0.07605604  0.13856066    -0.80700
C1124       C  0.71713112  0.30794517  0.13489269     0.30300
C1125       C  0.77875545  0.24406881  0.13359721     0.30300
C1126       C  0.75736995  0.31552912  0.12139410    -0.05900
C1127       C  0.73056470  0.28913990  0.16529022    -0.06700
C1128       C  0.70724014  0.27102375  0.11813450    -0.06600
C1129       C  0.78875905  0.28331373  0.12069763    -0.05900
C1130       C  0.76160372  0.25611563  0.16424814    -0.06700
C1131       C  0.73891577  0.23812686  0.11719390    -0.06600
C1132       C  0.82453423  0.29870975  0.11559576    -0.31900
N1133       N  0.81516589  0.33903755  0.11312249     0.14600
C1134       C  0.77441400  0.34970641  0.11682888    -0.32000
H1135       H  0.75925508  0.38023904  0.11941833     0.16500
C1136       C  0.76678938  0.24051164  0.19217836    -0.30900
N1137       N  0.74077381  0.26333759  0.21043911     0.13300
C1138       C  0.71809301  0.29271988  0.19437854    -0.30900
C1139       C  0.71963273  0.20445238  0.11564889    -0.31200
N1140       N  0.67876404  0.21586642  0.11407741     0.13800
H1141       H  0.73386730  0.17375719  0.11909837     0.16400
C1142       C  0.67066374  0.25599356  0.11659190    -0.31200
H1143       H  0.64050339  0.27250920  0.12065065     0.16400
H1144       H  0.69393176  0.31433622  0.20342795     0.16400
H1145       H  0.85539640  0.28257121  0.11688866     0.16500
H1146       H  0.78775811  0.21430570  0.19888563     0.16400
C1147       C  0.96239528  0.03136541  0.41252415     0.30300
C1148       C  0.52785022  0.47170882  0.40722938     0.30300
C1149       C  0.95609536  0.98927322  0.42163941    -0.05900
C1150       C  0.98357612  0.02538722  0.38226746    -0.06700
C1151       C  0.49648128  0.04031895  0.43098995    -0.06600
C1152       C  0.98604085  0.46017106  0.42285428    -0.05900
C1153       C  0.52027673  0.00036272  0.37930173    -0.06700
C1154       C  0.53147897  0.01046825  0.43054112    -0.06600
C1155       C  0.97276746  0.42480055  0.43032351    -0.31900
N1156       N  0.93188530  0.43229427  0.43521156     0.14600
C1157       C  0.91915468  0.47210437  0.43143703    -0.32000
H1158       H  0.89112257  0.98393488  0.42817780     0.16500
C1159       C  0.52794153  0.49048477  0.34896813    -0.30900
N1160       N  0.00626650  0.02155857  0.33611456     0.13300
C1161       C  0.97740454  0.04107089  0.35429042    -0.30900
C1162       C  0.56473460  0.03022022  0.43588188    -0.31200
N1163       N  0.55181051  0.06954424  0.44004906     0.13800
H1164       H  0.59641621  0.01823308  0.43145391     0.16400
C1165       C  0.51088473  0.07622602  0.43640681    -0.31200
H1166       H  0.49395283  0.10577018  0.43239035     0.16400
H1167       H  0.95290714  0.06408982  0.34728995     0.16400
H1168       H  0.99047497  0.39514905  0.42922862     0.16500
H1169       H  0.55315250  0.46984585  0.34013429     0.16400
O1170       O  0.69499770  0.17729043  0.44407985    -0.78200
C1171       C  0.82386458  0.15829266  0.41896217     0.82800
O1172       O  0.73852063  0.28290645  0.49040115    -0.79300
O1173       O  0.82812407  0.28629221  0.40798586    -0.80800
O1174       O  0.71180886  0.24605258  0.35009458    -0.80600
O1175       O  0.66013225  0.20648561  0.40569619    -0.79200
Zn1176     Zn  0.74672094  0.20124158  0.44722466     1.55700
O1177       O  0.77853900  0.24928545  0.35185857    -0.80600
Cd1178     Cd  0.69501522  0.25008251  0.39412081     1.59700
Cd1179     Cd  0.73915664  0.29532880  0.44587564     1.59600
O1180       O  0.65815525  0.30483934  0.39832872    -0.80600
O1181       O  0.74357182  0.24660026  0.42099502    -1.91100
Cd1182     Cd  0.79328017  0.24259942  0.39611736     1.59900
O1183       O  0.68811623  0.33429931  0.43443456    -0.80600
O1184       O  0.82789874  0.18715374  0.40167942    -0.79200
C1185       C  0.74714188  0.24950954  0.50372696     0.83300
C1186       C  0.66400271  0.18146544  0.42694057     0.83000
O1187       O  0.79433948  0.15957675  0.43701271    -0.78200
C1188       C  0.74559010  0.24873090  0.33714626     0.83800
O1189       O  0.75302846  0.21640364  0.48978678    -0.78300
C1190       C  0.65966560  0.33461978  0.41539458     0.83900
C1191       C  0.82146964  0.31677517  0.42480227     0.84200
O1192       O  0.78874786  0.32430472  0.43974983    -0.80700
C1193       C  0.61730715  0.13810993  0.40604981    -0.20000
C1194       C  0.63243923  0.15538706  0.43113020    -0.06600
C1195       C  0.61822998  0.14628352  0.45937788     0.14300
C1196       C  0.59076023  0.11835759  0.46175949    -0.20100
C1197       C  0.57753189  0.09974514  0.43671704    -0.06600
C1198       C  0.59009483  0.11017673  0.40854477     0.14300
C1199       C  0.57510860  0.09144217  0.38119616    -0.23400
H1200       H  0.62791727  0.14546872  0.38446381     0.15600
H1201       H  0.58000834  0.11040935  0.48315593     0.15600
C1202       C  0.63098672  0.16644556  0.48688823    -0.23400
H1203       H  0.58754435  0.10360239  0.36100227     0.05800
H1204       H  0.54112634  0.09772206  0.37994199     0.09000
H1205       H  0.58501526  0.05853604  0.38146102     0.09000
H1206       H  0.62378766  0.19952863  0.48447374     0.09000
H1207       H  0.66431955  0.15787103  0.49103357     0.09000
H1208       H  0.61460670  0.15757773  0.50658552     0.05800
C1209       C  0.59295118  0.43488499  0.42985699    -0.20000
C1210       C  0.56305349  0.43644457  0.40741046    -0.06600
C1211       C  0.56426037  0.40247148  0.38857890     0.14300
C1212       C  0.59674736  0.37069733  0.39128452    -0.20100
C1213       C  0.62738962  0.37036716  0.41303243    -0.06600
C1214       C  0.62541174  0.40347572  0.43249387     0.14300
C1215       C  0.65658571  0.40651593  0.45667669    -0.23400
H1216       H  0.59032889  0.45743241  0.44684019     0.15600
H1217       H  0.59726733  0.34525404  0.37659486     0.15600
C1218       C  0.53120875  0.39663988  0.36643205    -0.23400
H1219       H  0.64984126  0.43488050  0.46936518     0.05800
H1220       H  0.68754237  0.40608574  0.44704318     0.09000
H1221       H  0.65661330  0.38149189  0.47256327     0.09000
H1222       H  0.54425468  0.39509221  0.34392590     0.09000
H1223       H  0.99985830  0.41873234  0.37132912     0.09000
H1224       H  0.51961092  0.36793600  0.37108642     0.05800
C1225       C  0.91744394  0.08639105  0.43995804    -0.20000
C1226       C  0.92299784  0.06147226  0.41487675    -0.06600
C1227       C  0.89004196  0.06371591  0.39418496     0.14300
C1228       C  0.85796677  0.09596346  0.39580120    -0.20100
C1229       C  0.85573039  0.12325900  0.41911522    -0.06600
C1230       C  0.88452509  0.11736223  0.44218007     0.14300
C1231       C  0.88111319  0.14436788  0.46882257    -0.23400
H1232       H  0.93878326  0.08184007  0.45822566     0.15600
H1233       H  0.83406386  0.09937823  0.37907961     0.15600
C1234       C  0.88593545  0.03232439  0.37106162    -0.23400
H1235       H  0.90668561  0.13581660  0.48468478     0.05800
H1236       H  0.85186850  0.14244200  0.48037799     0.09000
H1237       H  0.88182465  0.17587843  0.46193321     0.09000
H1238       H  0.91063154  0.00639265  0.37181502     0.09000
H1239       H  0.88514508  0.04600481  0.34881218     0.09000
H1240       H  0.85666854  0.02026722  0.37443711     0.05800
C1241       C  0.90692002  0.37817107  0.40845283    -0.20000
C1242       C  0.90552269  0.40223261  0.43364464    -0.06600
C1243       C  0.87805466  0.39716215  0.45634792     0.14300
C1244       C  0.85159026  0.36846143  0.45302405    -0.20100
C1245       C  0.85216489  0.34463145  0.42746004    -0.06600
C1246       C  0.88071027  0.34933709  0.40495386     0.14300
C1247       C  0.88322596  0.32535421  0.37680293    -0.23400
H1248       H  0.92831224  0.38270303  0.39117182     0.15600
H1249       H  0.83031905  0.36468489  0.47055350     0.15600
C1250       C  0.87737733  0.42145078  0.48418730    -0.23400
H1251       H  0.90612449  0.33470499  0.36139831     0.05800
H1252       H  0.85299216  0.32971042  0.36539245     0.09000
H1253       H  0.89281616  0.29306495  0.38168369     0.09000
H1254       H  0.90817303  0.41647737  0.49478052     0.09000
H1255       H  0.85477376  0.41282607  0.50012007     0.09000
H1256       H  0.86891206  0.45382580  0.47915607     0.05800
C1257       C  0.77817707  0.26173240  0.25704906    -0.20000
C1258       C  0.74135735  0.25947796  0.24196675    -0.06600
C1259       C  0.70644306  0.25287726  0.25798828     0.14300
C1260       C  0.70908551  0.24938903  0.28874326    -0.20100
C1261       C  0.74588289  0.25190987  0.30423887    -0.06600
C1262       C  0.78110297  0.25825078  0.28783746     0.14300
C1263       C  0.82192551  0.26187686  0.30208975    -0.23400
H1264       H  0.80479774  0.26672432  0.24443167     0.15600
H1265       H  0.68186795  0.24433670  0.30061995     0.15600
C1266       C  0.66630715  0.24805801  0.24337521    -0.23400
H1267       H  0.84540289  0.26707547  0.28564129     0.05800
H1268       H  0.83376031  0.23372707  0.31395179     0.09000
H1269       H  0.81857790  0.28770781  0.31751415     0.09000
H1270       H  0.66763348  0.24929061  0.21911193     0.09000
H1271       H  0.64202090  0.27214308  0.25098786     0.09000
H1272       H  0.65760771  0.21849036  0.24939562     0.05800
C1273       C  0.53792694  0.03615892  0.25478206    -0.20000
C1274       C  0.99875257  0.02519651  0.24171241    -0.06600
C1275       C  0.96445436  0.50525064  0.25698704     0.14300
C1276       C  0.96683101  0.50335337  0.28789442    -0.20100
C1277       C  0.00450748  0.02336637  0.30437734    -0.06600
C1278       C  0.54188010  0.03656381  0.28561502     0.14300
C1279       C  0.58049908  0.04720256  0.29946720    -0.23400
H1280       H  0.56346393  0.04263641  0.24160692     0.15600
H1281       H  0.94405615  0.49019913  0.30021463     0.15600
C1282       C  0.93006911  0.48789428  0.24191796    -0.23400
H1283       H  0.60267322  0.05430320  0.28263810     0.05800
H1284       H  0.59581362  0.02179776  0.31286148     0.09000
H1285       H  0.06768165  0.06871600  0.31684994     0.09000
H1286       H  0.45315224  0.45898102  0.22467386     0.09000
H1287       H  0.90952790  0.51192998  0.23024756     0.09000
H1288       H  0.91092941  0.47398857  0.25786677     0.05800
C1289       C  0.61100382  0.14640472  0.14365238    -0.20000
C1290       C  0.59308046  0.13451916  0.11756786    -0.06600
C1291       C  0.60258048  0.15116154  0.09028349     0.14300
C1292       C  0.63083875  0.17836309  0.08979879    -0.20100
C1293       C  0.64902857  0.18939778  0.11577890    -0.06600
C1294       C  0.63871522  0.17405971  0.14302434     0.14300
C1295       C  0.65685252  0.18731072  0.17123030    -0.23400
H1296       H  0.60320950  0.13411777  0.16457274     0.15600
H1297       H  0.63925352  0.19088551  0.06912902     0.15600
C1298       C  0.58427382  0.13950472  0.06159983    -0.23400
H1299       H  0.64498211  0.17296989  0.19076034     0.05800
H1300       H  0.64886489  0.22031653  0.17351630     0.09000
H1301       H  0.69074904  0.17932896  0.17101265     0.09000
H1302       H  0.55062368  0.14927522  0.06139442     0.09000
H1303       H  0.59103138  0.10652023  0.05843662     0.09000
H1304       H  0.59683938  0.15399230  0.04257685     0.05800
C1305       C  0.63095110  0.38809546  0.10536905    -0.20000
C1306       C  0.62226610  0.41284982  0.12995581    -0.06600
C1307       C  0.64709330  0.40532150  0.15552111     0.14300
C1308       C  0.67772037  0.37165969  0.15627421    -0.20100
C1309       C  0.68432677  0.34495479  0.13243658    -0.06600
C1310       C  0.66294828  0.35592840  0.10558739     0.14300
C1311       C  0.67351961  0.33613551  0.07619842    -0.23400
H1312       H  0.61365928  0.39495102  0.08515033     0.15600
H1313       H  0.69762262  0.36732667  0.17528993     0.15600
C1314       C  0.64150171  0.43196060  0.18231933    -0.23400
H1315       H  0.67299144  0.35942287  0.05884237     0.05800
H1316       H  0.65051458  0.31635803  0.07033833     0.09000
H1317       H  0.70476410  0.31902598  0.07545310     0.09000
H1318       H  0.60960710  0.43375711  0.19051618     0.09000
H1319       H  0.64822900  0.46241332  0.17677351     0.09000
H1320       H  0.66255792  0.42034897  0.20054707     0.05800
C1321       C  0.87838507  0.17070547  0.14892247    -0.20000
C1322       C  0.87653896  0.14267717  0.12648184    -0.06600
C1323       C  0.84558670  0.14933642  0.10493000     0.14300
C1324       C  0.81518015  0.18266940  0.10758977    -0.20100
C1325       C  0.81456867  0.20966728  0.13144792    -0.06600
C1326       C  0.84919613  0.20526175  0.15081348     0.14300
C1327       C  0.85852996  0.23659372  0.17259233    -0.23400
H1328       H  0.90397682  0.16649988  0.16431551     0.15600
H1329       H  0.79228119  0.18783836  0.09033857     0.15600
C1330       C  0.84438115  0.12108958  0.07928184    -0.23400
H1331       H  0.85933220  0.22424274  0.19526775     0.05800
H1332       H  0.83652861  0.26450614  0.17179995     0.09000
H1333       H  0.88913025  0.24507644  0.16769101     0.09000
H1334       H  0.84255485  0.09036166  0.08748667     0.09000
H1335       H  0.87248682  0.12058085  0.06585768     0.09000
H1336       H  0.81744286  0.13031999  0.06472855     0.05800
C1337       C  0.88332477  0.40811810  0.14351945    -0.20000
C1338       C  0.89678856  0.42427330  0.11757428    -0.06600
C1339       C  0.88321528  0.41194134  0.08989218     0.14300
C1340       C  0.85669456  0.38305863  0.08892747    -0.20100
C1341       C  0.84395351  0.36656313  0.11486299    -0.06600
C1342       C  0.85710288  0.37911740  0.14244154     0.14300
C1343       C  0.84338651  0.36181307  0.17060042    -0.23400
H1344       H  0.89385486  0.41781847  0.16464123     0.15600
H1345       H  0.84541073  0.37351216  0.06801000     0.15600
C1346       C  0.89521909  0.43020363  0.06153098    -0.23400
H1347       H  0.85608673  0.37543392  0.19025732     0.05800
H1348       H  0.85418443  0.32911867  0.17118150     0.09000
H1349       H  0.80940539  0.36724873  0.17206080     0.09000
H1350       H  0.92881228  0.42298335  0.05820380     0.09000
H1351       H  0.88630090  0.46327664  0.06219841     0.09000
H1352       H  0.87982073  0.41854591  0.04220244     0.05800
C1353       C  0.60966002  0.13817874  0.95772924    -0.20000
C1354       C  0.61382905  0.10986222  0.93457063    -0.06600
C1355       C  0.64873222  0.10793574  0.91602485     0.14300
C1356       C  0.67616023  0.13563517  0.92000440    -0.20100
C1357       C  0.67036589  0.16523333  0.94188172    -0.06600
C1358       C  0.63751086  0.16574823  0.96155191     0.14300
C1359       C  0.63165039  0.19473247  0.98689167    -0.23400
H1360       H  0.58415066  0.13939201  0.97280777     0.15600
H1361       H  0.70153873  0.13547602  0.90492495     0.15600
C1362       C  0.65745958  0.07784240  0.89139449    -0.23400
H1363       H  0.60096405  0.21326505  0.98531945     0.05800
H1364       H  0.65527939  0.21501767  0.98778215     0.09000
H1365       H  0.63412015  0.17765594  0.00775369     0.09000
H1366       H  0.63216197  0.08211639  0.87492479     0.09000
H1367       H  0.66127505  0.04688502  0.90040612     0.09000
H1368       H  0.68620252  0.08118193  0.87958773     0.05800
C1369       C  0.89467102  0.17280738  0.90592212    -0.20000
C1370       C  0.88524944  0.13401507  0.91093774    -0.06600
C1371       C  0.84411014  0.12724083  0.90770763     0.14300
C1372       C  0.81370217  0.15971967  0.90191211    -0.20100
C1373       C  0.82175294  0.19949871  0.90302438    -0.06600
C1374       C  0.86346670  0.20512928  0.89985396     0.14300
C1375       C  0.87625286  0.24182143  0.88572521    -0.23400
H1376       H  0.92654727  0.17736494  0.90483630     0.15600
H1377       H  0.78319673  0.15372175  0.89648545     0.15600
C1378       C  0.83139812  0.08621461  0.91132386    -0.23400
H1379       H  0.89723356  0.25562578  0.90049655     0.05800
H1380       H  0.89321086  0.23272127  0.86519352     0.09000
H1381       H  0.84984184  0.26441040  0.87930159     0.09000
H1382       H  0.84247364  0.07324960  0.93288589     0.09000
H1383       H  0.84399082  0.06605128  0.89325215     0.09000
H1384       H  0.79749542  0.08754684  0.91074009     0.05800
C1385       C  0.65411937  0.39811959  0.89873059    -0.20000
C1386       C  0.61644272  0.39134015  0.91063104    -0.06600
C1387       C  0.60883652  0.35130232  0.91329723     0.14300
C1388       C  0.64053686  0.31987069  0.90717424    -0.20100
C1389       C  0.68076518  0.32662769  0.90112230    -0.06600
C1390       C  0.68563498  0.36640481  0.89275107     0.14300
C1391       C  0.72205499  0.37698226  0.87601920    -0.23400
H1392       H  0.65908624  0.42852846  0.89376082     0.15600
H1393       H  0.63272020  0.29024846  0.90501575     0.15600
C1394       C  0.56706626  0.34123249  0.92112637    -0.23400
H1395       H  0.73605187  0.40024223  0.88814571     0.05800
H1396       H  0.71145488  0.38958591  0.85425758     0.09000
H1397       H  0.74608498  0.35119007  0.87188748     0.09000
H1398       H  0.54369142  0.35591192  0.90536327     0.09000
H1399       H  0.55894003  0.35139932  0.94384002     0.09000
H1400       H  0.56620681  0.30839817  0.92036234     0.05800
C1401       C  0.83278722  0.38596270  0.91546059    -0.20000
C1402       C  0.83493521  0.35925048  0.93920489    -0.06600
C1403       C  0.86641947  0.35956275  0.96035440     0.14300
C1404       C  0.89535755  0.38613510  0.95687796    -0.20100
C1405       C  0.89373501  0.41270728  0.93271901    -0.06600
C1406       C  0.86139334  0.41253400  0.91176561     0.14300
C1407       C  0.85678793  0.43904052  0.88479209    -0.23400
H1408       H  0.80928245  0.38471532  0.89886881     0.15600
H1409       H  0.91940075  0.38592494  0.97329921     0.15600
C1410       C  0.86996804  0.33252380  0.98688524    -0.23400
H1411       H  0.83043955  0.43352529  0.87074729     0.05800
H1412       H  0.88478995  0.43302894  0.87107638     0.09000
H1413       H  0.85109816  0.47109018  0.89139961     0.09000
H1414       H  0.84463492  0.31423222  0.98817520     0.09000
H1415       H  0.86909969  0.35096623  0.00720177     0.09000
H1416       H  0.89953493  0.31198764  0.98621538     0.05800
C1417       C  0.98522217  0.48106472  0.76063712    -0.20000
C1418       C  0.50480167  0.00570968  0.74573313    -0.06600
C1419       C  0.52862564  0.03007433  0.76143224     0.14300
C1420       C  0.52698844  0.03101558  0.79233870    -0.20100
C1421       C  0.50141615  0.00851806  0.80803924    -0.06600
C1422       C  0.98279678  0.48171094  0.79149668     0.14300
C1423       C  0.95627333  0.45469090  0.80615981    -0.23400
H1424       H  0.96769758  0.46213330  0.74794524     0.15600
H1425       H  0.54551063  0.04982530  0.80425738     0.15600
C1426       C  0.55552619  0.05517617  0.74531226    -0.23400
H1427       H  0.94285995  0.43546651  0.78996766     0.05800
H1428       H  0.93032896  0.47292715  0.81760671     0.09000
H1429       H  0.43060545  0.46678951  0.81406302     0.09000
H1430       H  0.04093018  0.07587557  0.72919280     0.09000
H1431       H  0.57843850  0.03548668  0.73204680     0.09000
H1432       H  0.57226593  0.07274944  0.76071787     0.05800
C1433       C  0.76558424  0.28178244  0.74806183    -0.20000
C1434       C  0.75135912  0.24931219  0.73387167    -0.06600
C1435       C  0.73661884  0.21941330  0.75105838     0.14300
C1436       C  0.73633721  0.22295687  0.78190962    -0.20100
C1437       C  0.74972145  0.25586498  0.79585955    -0.06600
C1438       C  0.76454171  0.28553940  0.77884540     0.14300
C1439       C  0.77976782  0.32077833  0.79338571    -0.23400
H1440       H  0.77694860  0.30465889  0.73496635     0.15600
H1441       H  0.72556041  0.20008580  0.79532713     0.15600
C1442       C  0.72250783  0.18310861  0.73712963    -0.23400
H1443       H  0.79115700  0.34094267  0.77701634     0.05800
H1444       H  0.80531819  0.30997574  0.80877028     0.09000
H1445       H  0.75448781  0.33851420  0.80584588     0.09000
H1446       H  0.74743833  0.16702821  0.72341425     0.09000
H1447       H  0.69492729  0.19232998  0.72324439     0.09000
H1448       H  0.71421638  0.16180370  0.75394619     0.05800
C1449       C  0.86648584  0.09593499  0.63930230    -0.20000
C1450       C  0.87509306  0.13280312  0.62871829    -0.06600
C1451       C  0.91626291  0.13891776  0.62590929     0.14300
C1452       C  0.94751342  0.10686397  0.63134008    -0.20100
C1453       C  0.93909196  0.06780282  0.63680367    -0.06600
C1454       C  0.89810163  0.06411634  0.64511221     0.14300
C1455       C  0.88644002  0.02921640  0.66236325    -0.23400
H1456       H  0.83502884  0.09254257  0.64434225     0.15600
H1457       H  0.97837014  0.11333195  0.63316693     0.15600
C1458       C  0.92746589  0.17894595  0.61673251    -0.23400
H1459       H  0.87349174  0.04033071  0.68384003     0.05800
H1460       H  0.91002033  0.50739237  0.66834315     0.09000
H1461       H  0.86248683  0.01559742  0.65032264     0.09000
H1462       H  0.91697112  0.20210227  0.63346780     0.09000
H1463       H  0.91285730  0.18796522  0.59519467     0.09000
H1464       H  0.96115787  0.17776686  0.61428746     0.05800
C1465       C  0.56142909  0.39322916  0.63764161    -0.20000
C1466       C  0.57085273  0.43259120  0.63683490    -0.06600
C1467       C  0.61298749  0.43679743  0.64060859     0.14300
C1468       C  0.64320016  0.40381286  0.63472337    -0.20100
C1469       C  0.63266309  0.36547847  0.62983522    -0.06600
C1470       C  0.59129960  0.35975847  0.63314565     0.14300
C1471       C  0.57807463  0.31874233  0.63155574    -0.23400
H1472       H  0.53090040  0.38819387  0.64329115     0.15600
H1473       H  0.67533928  0.40752202  0.63585669     0.15600
C1474       C  0.62744842  0.47301177  0.65453461    -0.23400
H1475       H  0.54418170  0.32046110  0.63272530     0.05800
H1476       H  0.59137408  0.29994792  0.65026455     0.09000
H1477       H  0.58822803  0.30401312  0.61045370     0.09000
H1478       H  0.64328428  0.46381856  0.67561912     0.09000
H1479       H  0.60226714  0.99811949  0.66271786     0.09000
H1480       H  0.64989988  0.48500992  0.64013252     0.05800
C1481       C  0.84753589  0.38565399  0.59041601    -0.20000
C1482       C  0.85496874  0.35436919  0.61135159    -0.06600
C1483       C  0.89057613  0.35237752  0.62950035     0.14300
C1484       C  0.91639795  0.38163073  0.62657006    -0.20100
C1485       C  0.90890267  0.41275097  0.60584538    -0.06600
C1486       C  0.87402760  0.41476050  0.58744620     0.14300
C1487       C  0.86525202  0.44672120  0.56421435    -0.23400
H1488       H  0.82077582  0.38752042  0.57621984     0.15600
H1489       H  0.94287812  0.38048623  0.64098431     0.15600
C1490       C  0.90239475  0.31990806  0.65219518    -0.23400
H1491       H  0.83828461  0.44224986  0.55047452     0.05800
H1492       H  0.89219179  0.44602544  0.54957183     0.09000
H1493       H  0.85829853  0.47670864  0.57451880     0.09000
H1494       H  0.90720343  0.29003683  0.64138039     0.09000
H1495       H  0.87822221  0.32109240  0.66921208     0.09000
H1496       H  0.93146747  0.32340248  0.66378819     0.05800
C1497       C  0.58593583  0.11800329  0.62250812    -0.20000
C1498       C  0.59111433  0.08958403  0.59974213    -0.06600
C1499       C  0.62417940  0.08946668  0.58024165     0.14300
C1500       C  0.65185587  0.11712432  0.58453862    -0.20100
C1501       C  0.64716882  0.14532965  0.60777456    -0.06600
C1502       C  0.61295165  0.14593864  0.62676816     0.14300
C1503       C  0.60436376  0.17505744  0.65203916    -0.23400
H1504       H  0.56077156  0.11757918  0.63769532     0.15600
H1505       H  0.67726676  0.11655054  0.56943649     0.15600
C1506       C  0.63059092  0.06108578  0.55455561    -0.23400
H1507       H  0.57658020  0.17022153  0.66449214     0.05800
H1508       H  0.59882273  0.20631240  0.64359317     0.09000
H1509       H  0.63052673  0.17122920  0.66781159     0.09000
H1510       H  0.60620442  0.04172429  0.55264353     0.09000
H1511       H  0.66062093  0.04156469  0.55695988     0.09000
H1512       H  0.63055101  0.07853919  0.53382111     0.05800
O1513       O  0.69263731  0.83613442  0.60764037    -0.78200
C1514       C  0.82248765  0.82817465  0.61261130     0.82800
O1515       O  0.76142101  0.71715123  0.54904373    -0.79300
O1516       O  0.84137273  0.70121123  0.64182151    -0.80800
O1517       O  0.72033014  0.74227259  0.68724713    -0.80600
O1518       O  0.66449399  0.79992825  0.64074082    -0.79200
Zn1519     Zn  0.74310179  0.79852862  0.59344545     1.55700
O1520       O  0.78259965  0.75998050  0.68827581    -0.80600
Cd1521     Cd  0.70429181  0.74715030  0.64327191     1.59700
Cd1522     Cd  0.76201002  0.70102323  0.59331291     1.59600
O1523       O  0.67395565  0.69990352  0.63105155    -0.80600
O1524       O  0.75263995  0.75066942  0.61801630    -1.91100
Cd1525     Cd  0.80061871  0.75387442  0.64451102     1.59900
O1526       O  0.71447243  0.66699754  0.59744801    -0.80600
O1527       O  0.83041322  0.80168882  0.63268415    -0.79200
C1528       C  0.74852893  0.75037068  0.53616282     0.83300
C1529       C  0.66470842  0.83228917  0.62636837     0.83000
O1530       O  0.79113684  0.82961818  0.59590122    -0.78200
C1531       C  0.75079023  0.75181756  0.70158680     0.86200
O1532       O  0.73814385  0.78286463  0.55049508    -0.78300
C1533       C  0.68212457  0.67082899  0.61306477     0.83900
C1534       C  0.84292681  0.66935728  0.62645660     0.84200
O1535       O  0.81586688  0.66486082  0.60690806    -0.80700
C1536       C  0.53544653  0.96931438  0.63807513     0.30300
C1537       C  0.97337132  0.53325932  0.63789011     0.30300
C1538       C  0.99342528  0.95966428  0.62269055    -0.05900
C1539       C  0.52052773  0.98639330  0.66807366    -0.06700
C1540       C  0.54353403  0.50518674  0.61684744    -0.06600
C1541       C  0.96296450  0.99318234  0.62178087    -0.05900
C1542       C  0.99069416  0.51845083  0.66788577    -0.06700
C1543       C  0.51192215  0.53784748  0.61691343    -0.06600
C1544       C  0.92828520  0.98115773  0.60957666    -0.31900
N1545       N  0.93584504  0.94128996  0.60396047     0.14600
C1546       C  0.97573969  0.92833841  0.61058041    -0.32000
H1547       H  0.98937920  0.89749600  0.60805547     0.16500
C1548       C  0.98374367  0.52976593  0.69674140    -0.30900
N1549       N  0.50930016  0.50514204  0.71100480     0.13300
C1550       C  0.53043637  0.97842936  0.69726657    -0.30900
C1551       C  0.52780550  0.56941348  0.60406019    -0.31200
N1552       N  0.56800875  0.55790686  0.59810258     0.13800
H1553       H  0.51316928  0.60001484  0.60160377     0.16400
C1554       C  0.57712893  0.51824070  0.60404904    -0.31200
H1555       H  0.60743818  0.50151950  0.60190404     0.16400
H1556       H  0.55399675  0.95537154  0.70562773     0.16400
H1557       H  0.89861857  0.99924679  0.60686841     0.16500
H1558       H  0.96139040  0.55412603  0.70463020     0.16400
O1559       O  0.54166491  0.59110873  0.94075833    -0.78200
C1560       C  0.91653233  0.59669218  0.91412375     0.82800
O1561       O  0.51178219  0.98306070  0.99524403    -0.79300
O1562       O  0.91976172  0.96889088  0.91029454    -0.80800
O1563       O  0.53183865  0.51585762  0.85187922    -0.80600
O1564       O  0.58062534  0.55652750  0.90725529    -0.79200
Zn1565     Zn  0.49231669  0.56211514  0.94566105     1.55700
O1566       O  0.97285331  0.50274534  0.85427913    -0.80600
Cd1567     Cd  0.54740459  0.51153264  0.89612688     1.59700
Cd1568     Cd  0.50924959  0.96526750  0.95117930     1.59600
O1569       O  0.58704374  0.95827992  0.90148873    -0.80600
O1570       O  0.49897816  0.51313548  0.92223541    -1.91100
Cd1571     Cd  0.95524054  0.51131171  0.89776805     1.59900
O1572       O  0.56084331  0.92558475  0.93785994    -0.80600
O1573       O  0.91700413  0.56490350  0.89894437    -0.79200
C1574       C  0.49893051  0.51709141  0.00483918     0.83300
C1575       C  0.57415913  0.58566952  0.92525505     0.83000
O1576       O  0.94392772  0.60027275  0.93359816    -0.78200
C1577       C  0.49986279  0.50914835  0.83787920     0.83800
O1578       O  0.48945145  0.54894828  0.98950461    -0.78300
C1579       C  0.58721263  0.92727704  0.91750405     0.83900
C1580       C  0.92541351  0.94034293  0.92898242     0.84200
O1581       O  0.95708230  0.93554096  0.94567093    -0.80700
C1582       C  0.78351025  0.73064155  0.90528136     0.30300
C1583       C  0.71824764  0.79208377  0.90455498     0.30300
C1584       C  0.79067742  0.76966745  0.92122381    -0.05900
C1585       C  0.76730062  0.74548871  0.87508047    -0.06700
C1586       C  0.74392079  0.72190516  0.92088495    -0.06600
C1587       C  0.75740668  0.80059467  0.92105313    -0.05900
C1588       C  0.73464160  0.77647702  0.87457666    -0.06700
C1589       C  0.71045800  0.75277200  0.92020219    -0.06600
C1590       C  0.77124465  0.83388077  0.93300998    -0.31900
N1591       N  0.81197822  0.82512727  0.93885440     0.14600
C1592       C  0.82366917  0.78559491  0.93303555    -0.32000
H1593       H  0.85486872  0.77076513  0.93490309     0.16500
C1594       C  0.72498168  0.78462384  0.84541019    -0.30900
N1595       N  0.75130628  0.75965543  0.82847347     0.13300
C1596       C  0.77669213  0.73511738  0.84642834    -0.30900
C1597       C  0.67771765  0.73682273  0.93232850    -0.31200
N1598       N  0.68973522  0.69775996  0.93914831     0.13800
H1599       H  0.64642781  0.75085566  0.93474633     0.16400
C1600       C  0.73047378  0.68925266  0.93409328    -0.31200
H1601       H  0.74772355  0.65995867  0.93806434     0.16400
H1602       H  0.79978738  0.71098790  0.83921286     0.16400
H1603       H  0.75409113  0.86359812  0.93484773     0.16500
H1604       H  0.70081719  0.80711376  0.83709391     0.16400
O1605       O  0.95662511  0.94715939  0.10569187    -0.78200
C1606       C  0.99932672  0.52084668  0.03949634     0.82800
O1607       O  0.58689819  0.97614719  0.14420944    -0.79300
O1608       O  0.53567633  0.60407712  0.09803960    -0.80800
O1609       O  0.91038183  0.58306605  0.14323617    -0.80600
O1610       O  0.91720122  0.98125885  0.13970688    -0.79200
Zn1611     Zn  0.00429670  0.97648774  0.09908030     1.55700
O1612       O  0.93660304  0.61031507  0.10412816    -0.80600
Cd1613     Cd  0.94782595  0.52904910  0.14905805     1.59700
Cd1614     Cd  0.54519370  0.52828411  0.14796517     1.59600
O1615       O  0.96208605  0.52365186  0.19355093    -0.80600
O1616       O  0.99690977  0.52621105  0.12337240    -1.91100
Cd1617     Cd  0.98972208  0.57217111  0.09538927     1.59900
O1618       O  0.53047536  0.53054475  0.19260450    -0.80600
O1619       O  0.99013757  0.55523426  0.05134826    -0.79200
C1620       C  0.58514979  0.94474475  0.12900858     0.83300
C1621       C  0.92462620  0.95224810  0.12159833     0.83000
O1622       O  0.00613453  0.98764670  0.05479695    -0.78200
C1623       C  0.90979951  0.61089151  0.12422723     0.83800
O1624       O  0.55554349  0.94176822  0.11135652    -0.78300
C1625       C  0.99490998  0.52515585  0.20818018     0.83900
C1626       C  0.56540915  0.60318545  0.11614653     0.84200
O1627       O  0.57207372  0.57736995  0.13674668    -0.80700
C1628       C  0.71291727  0.80573654  0.13616967     0.30300
C1629       C  0.77593288  0.74326321  0.13358853     0.30300
C1630       C  0.75396732  0.81561907  0.12573296    -0.05900
C1631       C  0.72421495  0.78337802  0.16578033    -0.06700
C1632       C  0.70535282  0.77087414  0.11626058    -0.06600
C1633       C  0.78580726  0.78414484  0.12409457    -0.05900
C1634       C  0.75643228  0.75138818  0.16409193    -0.06700
C1635       C  0.73759817  0.73839973  0.11485660    -0.06600
C1636       C  0.82092997  0.80032243  0.11843092    -0.31900
N1637       N  0.81073731  0.84067647  0.11705008     0.14600
C1638       C  0.76999996  0.85045585  0.12149452    -0.32000
H1639       H  0.75403126  0.88071646  0.12388056     0.16500
C1640       C  0.76219912  0.73454450  0.19165833    -0.30900
N1641       N  0.73485660  0.75520768  0.21014387     0.13300
C1642       C  0.71088354  0.78416784  0.19469919    -0.30900
C1643       C  0.71871201  0.70459360  0.11138627    -0.31200
N1644       N  0.67783169  0.71554362  0.10911209     0.13800
H1645       H  0.73302035  0.67388761  0.11468432     0.16400
C1646       C  0.66921856  0.75543067  0.11285535    -0.31200
H1647       H  0.63878286  0.77131068  0.11697200     0.16400
H1648       H  0.68590133  0.80398699  0.20446530     0.16400
H1649       H  0.85197108  0.78451566  0.11809248     0.16500
H1650       H  0.78514720  0.70975677  0.19812567     0.16400
C1651       C  0.95937886  0.53090232  0.41205347     0.30300
C1652       C  0.52950837  0.97623440  0.40811566     0.30300
C1653       C  0.95258439  0.48998193  0.42377986    -0.05900
C1654       C  0.97801127  0.52167110  0.38129291    -0.06700
C1655       C  0.49877854  0.53864446  0.42790903    -0.06600
C1656       C  0.99019302  0.96028008  0.42062801    -0.05900
C1657       C  0.51467688  0.49253960  0.37775005    -0.06700
C1658       C  0.53340871  0.50848907  0.42647946    -0.06600
C1659       C  0.97748544  0.92407239  0.42660504    -0.31900
N1660       N  0.93646122  0.93064108  0.43102530     0.14600
C1661       C  0.92300395  0.97040451  0.42814487    -0.32000
H1662       H  0.88741435  0.48607183  0.43105984     0.16500
C1663       C  0.53563218  0.00000801  0.35107198    -0.30900
N1664       N  0.99919837  0.51545235  0.33499137     0.13300
C1665       C  0.97127690  0.53636040  0.35309116    -0.30900
C1666       C  0.56726265  0.52844153  0.42795881    -0.31200
N1667       N  0.55488457  0.56790274  0.43176088     0.13800
H1668       H  0.59842980  0.51605815  0.42233394     0.16400
C1669       C  0.51371804  0.57476030  0.43062360    -0.31200
H1670       H  0.49626893  0.60428976  0.42759062     0.16400
H1671       H  0.94769536  0.56025583  0.34604776     0.16400
H1672       H  0.99593514  0.89477598  0.42560786     0.16500
H1673       H  0.56070839  0.97905505  0.34246619     0.16400
O1674       O  0.69733000  0.67746871  0.44036059    -0.78200
C1675       C  0.82430446  0.66151647  0.41839401     0.82800
O1676       O  0.73983385  0.78497566  0.49051313    -0.79300
O1677       O  0.82806022  0.78782322  0.40511843    -0.80800
O1678       O  0.70858325  0.75140208  0.35027365    -0.80600
O1679       O  0.65999381  0.70965253  0.40431291    -0.79200
Zn1680     Zn  0.74686982  0.70386257  0.44647603     1.55700
O1681       O  0.77616768  0.74998400  0.35047412    -0.80600
Cd1682     Cd  0.69391393  0.75447175  0.39457393     1.59700
Cd1683     Cd  0.74091719  0.79822488  0.44587726     1.59600
O1684       O  0.65758351  0.80887457  0.40082392    -0.80600
O1685       O  0.74344358  0.74972165  0.42063816    -1.91100
Cd1686     Cd  0.79215647  0.74467589  0.39454461     1.59900
O1687       O  0.69062637  0.83925723  0.43496173    -0.80600
O1688       O  0.82700785  0.68942343  0.40000210    -0.79200
C1689       C  0.74596271  0.75128302  0.50375685     0.83300
C1690       C  0.66591049  0.68201400  0.42363109     0.83000
O1691       O  0.79581249  0.66351875  0.43729434    -0.78200
C1692       C  0.74228484  0.75125473  0.33661785     0.83800
O1693       O  0.75027195  0.71830080  0.48961550    -0.78300
C1694       C  0.66066215  0.83904845  0.41717411     0.83900
C1695       C  0.82357711  0.81737679  0.42285305     0.84200
O1696       O  0.79213886  0.82488810  0.43919629    -0.80700
C1697       C  0.61666729  0.64221593  0.40091336    -0.20000
C1698       C  0.63584153  0.65400075  0.42649630    -0.06600
C1699       C  0.62624655  0.63854200  0.45417465     0.14300
C1700       C  0.59881762  0.61052250  0.45534475    -0.20100
C1701       C  0.58093375  0.59798484  0.42968349    -0.06600
C1702       C  0.58939165  0.61409639  0.40224053     0.14300
C1703       C  0.57009070  0.60095218  0.37447336    -0.23400
H1704       H  0.62383243  0.65425646  0.37976112     0.15600
H1705       H  0.59147440  0.59791901  0.47624659     0.15600
C1706       C  0.64382026  0.65224521  0.48252980    -0.23400
H1707       H  0.58036482  0.61631641  0.35484797     0.05800
H1708       H  0.53617469  0.60812546  0.37575632     0.09000
H1709       H  0.57869549  0.56810395  0.37145119     0.09000
H1710       H  0.63842100  0.68551149  0.48380347     0.09000
H1711       H  0.67718942  0.64119029  0.48395257     0.09000
H1712       H  0.62918907  0.64085505  0.50199036     0.05800
C1713       C  0.59003322  0.93607688  0.43425353    -0.20000
C1714       C  0.56487457  0.94118700  0.40888021    -0.06600
C1715       C  0.56971800  0.90992602  0.38752326     0.14300
C1716       C  0.60243449  0.87850646  0.39031612    -0.20100
C1717       C  0.62846763  0.87472983  0.41508261    -0.06600
C1718       C  0.62146578  0.90372885  0.43770531     0.14300
C1719       C  0.64538808  0.90035391  0.46630674    -0.23400
H1720       H  0.58401378  0.95627314  0.45266120     0.15600
H1721       H  0.60646804  0.85568682  0.37331818     0.15600
C1722       C  0.53992443  0.90606748  0.36261664    -0.23400
H1723       H  0.63373104  0.92449160  0.48207317     0.05800
H1724       H  0.67804785  0.90299924  0.46216092     0.09000
H1725       H  0.64288913  0.87123681  0.47708860     0.09000
H1726       H  0.55562939  0.90764371  0.34119446     0.09000
H1727       H  0.00849062  0.92383304  0.36814327     0.09000
H1728       H  0.52895904  0.87647378  0.36413725     0.05800
C1729       C  0.91821395  0.58937768  0.43842403    -0.20000
C1730       C  0.92112102  0.56241374  0.41447136    -0.06600
C1731       C  0.88686274  0.56438432  0.39493577     0.14300
C1732       C  0.85585970  0.59759029  0.39635440    -0.20100
C1733       C  0.85604572  0.62644067  0.41844174    -0.06600
C1734       C  0.88641376  0.62147431  0.44046521     0.14300
C1735       C  0.88574378  0.65050524  0.46581031    -0.23400
H1736       H  0.94073522  0.58550916  0.45597913     0.15600
H1737       H  0.83078623  0.60049442  0.38054229     0.15600
C1738       C  0.88025914  0.53184578  0.37331838    -0.23400
H1739       H  0.91230328  0.64246294  0.48092368     0.05800
H1740       H  0.85723977  0.65043857  0.47870396     0.09000
H1741       H  0.88685029  0.68122794  0.45731540     0.09000
H1742       H  0.90397774  0.50511436  0.37445902     0.09000
H1743       H  0.87894854  0.54392821  0.35055630     0.09000
H1744       H  0.85052680  0.52136718  0.37806778     0.05800
C1745       C  0.91093679  0.87604096  0.40516723    -0.20000
C1746       C  0.91049029  0.90024456  0.43021538    -0.06600
C1747       C  0.88339389  0.89585017  0.45329628     0.14300
C1748       C  0.85633610  0.86767631  0.45054144    -0.20100
C1749       C  0.85541613  0.84412388  0.42496377    -0.06600
C1750       C  0.88359815  0.84812649  0.40201347     0.14300
C1751       C  0.88439066  0.82460570  0.37369538    -0.23400
H1752       H  0.93204125  0.88012902  0.38759278     0.15600
H1753       H  0.83545372  0.86444026  0.46842510     0.15600
C1754       C  0.88353615  0.92058450  0.48088366    -0.23400
H1755       H  0.90726359  0.83332847  0.35799844     0.05800
H1756       H  0.85385297  0.83020163  0.36274615     0.09000
H1757       H  0.89295001  0.79209321  0.37824751     0.09000
H1758       H  0.91476736  0.91607234  0.49076013     0.09000
H1759       H  0.86173965  0.91204165  0.49747736     0.09000
H1760       H  0.87454791  0.95284009  0.47568488     0.05800
C1761       C  0.76948314  0.76734248  0.25617778    -0.20000
C1762       C  0.73699905  0.75293525  0.24163717    -0.06600
C1763       C  0.70653548  0.73796896  0.25803822     0.14300
C1764       C  0.70917955  0.73766460  0.28890305    -0.20100
C1765       C  0.74173315  0.75212344  0.30382154    -0.06600
C1766       C  0.77225233  0.76747142  0.28703071     0.14300
C1767       C  0.80702496  0.78539833  0.30112882    -0.23400
H1768       H  0.79240310  0.77920126  0.24312139     0.15600
H1769       H  0.68576178  0.72576170  0.30140889     0.15600
C1770       C  0.67177580  0.72172482  0.24278416    -0.23400
H1771       H  0.82603693  0.79821965  0.28450867     0.05800
H1772       H  0.82761048  0.76198413  0.31335547     0.09000
H1773       H  0.79459834  0.81000237  0.31628924     0.09000
H1774       H  0.68428093  0.69647444  0.22821584     0.09000
H1775       H  0.65371070  0.74563892  0.22936354     0.09000
H1776       H  0.65072068  0.71049422  0.25874911     0.05800
C1777       C  0.52768230  0.54082003  0.25467761    -0.20000
C1778       C  0.99467044  0.52248068  0.24106940    -0.06600
C1779       C  0.96504716  0.01688796  0.25905805     0.14300
C1780       C  0.96856294  0.01617757  0.28995749    -0.20100
C1781       C  0.99836887  0.51796270  0.30341488    -0.06600
C1782       C  0.52959049  0.53976106  0.28560881     0.14300
C1783       C  0.56055227  0.56042915  0.30171070    -0.23400
H1784       H  0.54916580  0.55623371  0.24278829     0.15600
H1785       H  0.94313052  0.00948724  0.30317668     0.15600
C1786       C  0.92518597  0.00831488  0.24568405    -0.23400
H1787       H  0.58017436  0.57468718  0.28632856     0.05800
H1788       H  0.58070348  0.53845126  0.31547209     0.09000
H1789       H  0.04668133  0.57732933  0.31860901     0.09000
H1790       H  0.43376324  0.98400056  0.23187724     0.09000
H1791       H  0.91047975  0.03477960  0.23302160     0.09000
H1792       H  0.90298057  0.00189129  0.26271703     0.05800
C1793       C  0.60398373  0.65233351  0.13906845    -0.20000
C1794       C  0.59314544  0.63318731  0.11339220    -0.06600
C1795       C  0.61019958  0.64182669  0.08603987     0.14300
C1796       C  0.63801637  0.66947616  0.08519085    -0.20100
C1797       C  0.64854048  0.68854354  0.11084383    -0.06600
C1798       C  0.63147299  0.68018714  0.13806217     0.14300
C1799       C  0.64304647  0.70005336  0.16599015    -0.23400
H1800       H  0.59084541  0.64546479  0.15994969     0.15600
H1801       H  0.65189596  0.67622163  0.06456832     0.15600
C1802       C  0.60059865  0.62089393  0.05803575    -0.23400
H1803       H  0.62775621  0.68911830  0.18547668     0.05800
H1804       H  0.63372193  0.73299396  0.16454207     0.09000
H1805       H  0.67674328  0.69356976  0.16954471     0.09000
H1806       H  0.56768152  0.62905699  0.05220662     0.09000
H1807       H  0.60784506  0.58789041  0.06093210     0.09000
H1808       H  0.61889286  0.62945584  0.03925038     0.05800
C1809       C  0.63321110  0.89153932  0.10572154    -0.20000
C1810       C  0.61849827  0.91080224  0.13154076    -0.06600
C1811       C  0.63587690  0.89742476  0.15885713     0.14300
C1812       C  0.66695574  0.86435116  0.15955274    -0.20100
C1813       C  0.67961530  0.84245763  0.13406134    -0.06600
C1814       C  0.66407588  0.85827889  0.10632494     0.14300
C1815       C  0.68012156  0.84194908  0.07688794    -0.23400
H1816       H  0.62063726  0.90302630  0.08476564     0.15600
H1817       H  0.68266179  0.85742480  0.18006875     0.15600
C1818       C  0.62125873  0.91714440  0.18746505    -0.23400
H1819       H  0.66733425  0.86150569  0.05838417     0.05800
H1820       H  0.67109498  0.81215084  0.07247354     0.09000
H1821       H  0.71390125  0.84031092  0.07583706     0.09000
H1822       H  0.58769264  0.91718692  0.18969124     0.09000
H1823       H  0.62815211  0.94840160  0.18817347     0.09000
H1824       H  0.63655475  0.90103821  0.20678352     0.05800
C1825       C  0.87746535  0.67263889  0.14860168    -0.20000
C1826       C  0.87701687  0.64511127  0.12563627    -0.06600
C1827       C  0.84637384  0.65142251  0.10385157     0.14300
C1828       C  0.81495274  0.68381755  0.10670330    -0.20100
C1829       C  0.81286411  0.71009575  0.13106869    -0.06600
C1830       C  0.84702085  0.70619162  0.15086719     0.14300
C1831       C  0.85430425  0.73700790  0.17373145    -0.23400
H1832       H  0.90264622  0.66865050  0.16433817     0.15600
H1833       H  0.79249976  0.68881272  0.08917051     0.15600
C1834       C  0.84648796  0.62367588  0.07778196    -0.23400
H1835       H  0.85545556  0.72334034  0.19600104     0.05800
H1836       H  0.83103694  0.76408981  0.17366906     0.09000
H1837       H  0.88428484  0.74728198  0.16950349     0.09000
H1838       H  0.84540300  0.59258294  0.08550533     0.09000
H1839       H  0.87475273  0.62427812  0.06471919     0.09000
H1840       H  0.81968327  0.63254109  0.06303251     0.05800
C1841       C  0.87791960  0.91186662  0.14563670    -0.20000
C1842       C  0.89541798  0.92334339  0.11949127    -0.06600
C1843       C  0.88421709  0.90752759  0.09219931     0.14300
C1844       C  0.85618171  0.88001612  0.09194992    -0.20100
C1845       C  0.83926389  0.86851084  0.11812873    -0.06600
C1846       C  0.84998237  0.88443517  0.14524393     0.14300
C1847       C  0.83222047  0.87197618  0.17368422    -0.23400
H1848       H  0.88652944  0.92404883  0.16648304     0.15600
H1849       H  0.84707448  0.86755286  0.07135083     0.15600
C1850       C  0.90034777  0.92051502  0.06330598    -0.23400
H1851       H  0.84465635  0.88661915  0.19298471     0.05800
H1852       H  0.83974938  0.83899500  0.17651406     0.09000
H1853       H  0.79839069  0.88052103  0.17350517     0.09000
H1854       H  0.93393725  0.91081241  0.06199262     0.09000
H1855       H  0.89355874  0.95365913  0.06117134     0.09000
H1856       H  0.88598110  0.90710223  0.04426470     0.05800
C1857       C  0.59967677  0.64264620  0.95135322    -0.20000
C1858       C  0.60519327  0.61364499  0.92873801    -0.06600
C1859       C  0.64026646  0.61214618  0.91044213     0.14300
C1860       C  0.66814490  0.63916795  0.91545369    -0.20100
C1861       C  0.66244877  0.66798312  0.93794513    -0.06600
C1862       C  0.62779154  0.66964277  0.95618657     0.14300
C1863       C  0.61992351  0.69911303  0.98113422    -0.23400
H1864       H  0.57330106  0.64429133  0.96567527     0.15600
H1865       H  0.69419921  0.63876756  0.90096150     0.15600
C1866       C  0.64872892  0.58316895  0.88507977    -0.23400
H1867       H  0.59097656  0.71969313  0.97688116     0.05800
H1868       H  0.64512911  0.71722908  0.98430933     0.09000
H1869       H  0.61684220  0.68268883  0.00196713     0.09000
H1870       H  0.62276472  0.58756624  0.86914090     0.09000
H1871       H  0.65359435  0.55183073  0.89335335     0.09000
H1872       H  0.67683554  0.58766449  0.87288926     0.05800
C1873       C  0.89226068  0.66857073  0.90285248    -0.20000
C1874       C  0.88291628  0.63006240  0.90884763    -0.06600
C1875       C  0.84166070  0.62340682  0.90686951     0.14300
C1876       C  0.81094004  0.65622532  0.90259711    -0.20100
C1877       C  0.81947969  0.69594264  0.90307804    -0.06600
C1878       C  0.86093088  0.70100065  0.89767679     0.14300
C1879       C  0.87307618  0.73740342  0.88266817    -0.23400
H1880       H  0.92408461  0.67285922  0.90054526     0.15600
H1881       H  0.78024766  0.65041578  0.89783578     0.15600
C1882       C  0.82947486  0.58209996  0.90989197    -0.23400
H1883       H  0.89587884  0.75057440  0.89622673     0.05800
H1884       H  0.88765909  0.72809503  0.86130284     0.09000
H1885       H  0.84670430  0.76072579  0.87764762     0.09000
H1886       H  0.84127556  0.56841088  0.93106603     0.09000
H1887       H  0.84195341  0.56273525  0.89134368     0.09000
H1888       H  0.79560536  0.58311986  0.90965134     0.05800
C1889       C  0.65784403  0.89940867  0.90187578    -0.20000
C1890       C  0.61910947  0.89239979  0.91163898    -0.06600
C1891       C  0.61035014  0.85262517  0.91149461     0.14300
C1892       C  0.64205386  0.82116023  0.90555921    -0.20100
C1893       C  0.68300800  0.82762760  0.90234364    -0.06600
C1894       C  0.68916753  0.86760560  0.89566993     0.14300
C1895       C  0.72624889  0.87815531  0.87972075    -0.23400
H1896       H  0.66359275  0.92996449  0.89849375     0.15600
H1897       H  0.63402051  0.79194527  0.90132517     0.15600
C1898       C  0.56741391  0.84316913  0.91586398    -0.23400
H1899       H  0.74092474  0.90024457  0.89263738     0.05800
H1900       H  0.71623206  0.89221830  0.85829039     0.09000
H1901       H  0.74950342  0.85192895  0.87491559     0.09000
H1902       H  0.54630477  0.85974614  0.89943874     0.09000
H1903       H  0.55675705  0.85170040  0.93840813     0.09000
H1904       H  0.56588436  0.81063557  0.91318146     0.05800
C1905       C  0.84099483  0.87643595  0.91135663    -0.20000
C1906       C  0.83949029  0.85468292  0.93752219    -0.06600
C1907       C  0.86574150  0.86140628  0.96102885     0.14300
C1908       C  0.89297669  0.88972659  0.95773743    -0.20100
C1909       C  0.89470928  0.91172023  0.93142060    -0.06600
C1910       C  0.86797670  0.90475866  0.90787977     0.14300
C1911       C  0.86819239  0.92580775  0.87858195    -0.23400
H1912       H  0.82112854  0.87053405  0.89326583     0.15600
H1913       H  0.91293722  0.89467559  0.97602560     0.15600
C1914       C  0.86527948  0.83948982  0.98983270    -0.23400
H1915       H  0.84684677  0.91480952  0.86249805     0.05800
H1916       H  0.89943755  0.92040456  0.86899557     0.09000
H1917       H  0.85815921  0.95848450  0.88137139     0.09000
H1918       H  0.84255591  0.81821199  0.99000969     0.09000
H1919       H  0.85737640  0.86147148  0.00784442     0.09000
H1920       H  0.89610526  0.82233753  0.99427093     0.05800
C1921       C  0.98012817  0.98475800  0.75969503    -0.20000
C1922       C  0.50772081  0.50518469  0.74258944    -0.06600
C1923       C  0.54131512  0.51279621  0.75990096     0.14300
C1924       C  0.53769495  0.51378524  0.79070537    -0.20100
C1925       C  0.50104479  0.50762312  0.80487109    -0.06600
C1926       C  0.97753964  0.98603854  0.79060350     0.14300
C1927       C  0.94943764  0.96075609  0.80544487    -0.23400
H1928       H  0.96159309  0.96663607  0.74713187     0.15600
H1929       H  0.56382427  0.51971654  0.80371885     0.15600
C1930       C  0.58039272  0.52137366  0.74581129    -0.23400
H1931       H  0.93479166  0.94231853  0.78936579     0.05800
H1932       H  0.92442362  0.98027147  0.81692908     0.09000
H1933       H  0.46727036  0.93793974  0.82266347     0.09000
H1934       H  0.03952249  0.57706177  0.73095704     0.09000
H1935       H  0.59470431  0.49484299  0.73319932     0.09000
H1936       H  0.60307039  0.52853592  0.76247017     0.05800
C1937       C  0.78542263  0.76001720  0.74975211    -0.20000
C1938       C  0.74949199  0.75376399  0.73450069    -0.06600
C1939       C  0.71354344  0.75058680  0.75112618     0.14300
C1940       C  0.71509599  0.75302144  0.78198685    -0.20100
C1941       C  0.75124669  0.75825857  0.79685709    -0.06600
C1942       C  0.78669701  0.76241136  0.78057120     0.14300
C1943       C  0.82547529  0.77100310  0.79553115    -0.23400
H1944       H  0.81294395  0.76308996  0.73755220     0.15600
H1945       H  0.68800904  0.75031974  0.79481620     0.15600
C1946       C  0.67314852  0.74500050  0.73702430    -0.23400
H1947       H  0.84901868  0.77685773  0.77934133     0.05800
H1948       H  0.83905902  0.74501333  0.80903828     0.09000
H1949       H  0.81862767  0.79792948  0.80975923     0.09000
H1950       H  0.67639503  0.71611031  0.72488979     0.09000
H1951       H  0.66277432  0.77035288  0.72187456     0.09000
H1952       H  0.64863526  0.74417761  0.75359462     0.05800
C1953       C  0.86645064  0.59840226  0.64004579    -0.20000
C1954       C  0.87650798  0.63603738  0.63226295    -0.06600
C1955       C  0.91805877  0.64183536  0.63327957     0.14300
C1956       C  0.94838429  0.60863500  0.63808775    -0.20100
C1957       C  0.93878080  0.56935616  0.64000917    -0.06600
C1958       C  0.89715099  0.56587202  0.64627119     0.14300
C1959       C  0.88418688  0.53112780  0.66296518    -0.23400
H1960       H  0.83447930  0.59500935  0.64297227     0.15600
H1961       H  0.97948561  0.61390133  0.64169024     0.15600
C1962       C  0.93075490  0.68263530  0.62884197    -0.23400
H1963       H  0.87048337  0.54233884  0.68419849     0.05800
H1964       H  0.91253698  0.00560828  0.66725367     0.09000
H1965       H  0.86038569  0.51788095  0.65047163     0.09000
H1966       H  0.91834357  0.70318365  0.64676470     0.09000
H1967       H  0.91906476  0.69513926  0.60729660     0.09000
H1968       H  0.96466816  0.68120529  0.62901755     0.05800
C1969       C  0.56118317  0.89455181  0.64138155    -0.20000
C1970       C  0.57076089  0.93385955  0.64025540    -0.06600
C1971       C  0.61296227  0.93789529  0.64338695     0.14300
C1972       C  0.64292719  0.90470844  0.63723145    -0.20100
C1973       C  0.63204112  0.86644756  0.63227022    -0.06600
C1974       C  0.59068577  0.86099387  0.63615505     0.14300
C1975       C  0.57696116  0.82024281  0.63408506    -0.23400
H1976       H  0.53052491  0.88973872  0.64704521     0.15600
H1977       H  0.67512289  0.90825771  0.63797718     0.15600
C1978       C  0.62764213  0.97413488  0.65702498    -0.23400
H1979       H  0.54307568  0.82225266  0.63565566     0.05800
H1980       H  0.59056277  0.80075546  0.65234554     0.09000
H1981       H  0.58640084  0.80614199  0.61263173     0.09000
H1982       H  0.64419205  0.96495538  0.67785141     0.09000
H1983       H  0.60214583  0.49724596  0.65978721     0.09000
H1984       H  0.64951043  0.98631053  0.64223413     0.05800
C1985       C  0.87633812  0.85720315  0.58513319    -0.20000
C1986       C  0.84972211  0.85891625  0.60926359    -0.06600
C1987       C  0.84940574  0.88998553  0.63008857     0.14300
C1988       C  0.87690262  0.91775638  0.62700913    -0.20100
C1989       C  0.90483684  0.91523270  0.60363250    -0.06600
C1990       C  0.90420897  0.88494431  0.58220353     0.14300
C1991       C  0.93244129  0.88234641  0.55616611    -0.23400
H1992       H  0.87591629  0.83361280  0.56894567     0.15600
H1993       H  0.87771872  0.94079030  0.64354409     0.15600
C1994       C  0.81995140  0.89389864  0.65552440    -0.23400
H1995       H  0.92622547  0.85852900  0.54055216     0.05800
H1996       H  0.96485089  0.87532449  0.56347133     0.09000
H1997       H  0.92807572  0.91143038  0.54427385     0.09000
H1998       H  0.82566558  0.86668607  0.66956684     0.09000
H1999       H  0.78791524  0.89748844  0.64706581     0.09000
H2000       H  0.82333100  0.92033264  0.66947247     0.05800
C2001       C  0.60023819  0.60425571  0.62850656    -0.20000
C2002       C  0.59760521  0.58506072  0.60131928    -0.06600
C2003       C  0.62397599  0.59246402  0.57842522     0.14300
C2004       C  0.65114375  0.62062634  0.58277564    -0.20100
C2005       C  0.65313573  0.64091857  0.60985533    -0.06600
C2006       C  0.62768642  0.63177429  0.63324929     0.14300
C2007       C  0.62982000  0.64967516  0.66358665    -0.23400
H2008       H  0.58050679  0.59732341  0.64621437     0.15600
H2009       H  0.67070610  0.62688177  0.56477481     0.15600
C2010       C  0.62357892  0.57126574  0.54931197    -0.23400
H2011       H  0.60999089  0.63649472  0.67945540     0.05800
H2012       H  0.61909289  0.68243926  0.66289517     0.09000
H2013       H  0.66180191  0.64382773  0.67212170     0.09000
H2014       H  0.60244251  0.54847866  0.54899298     0.09000
H2015       H  0.65488688  0.55589454  0.54423740     0.09000
H2016       H  0.61335829  0.59335176  0.53186500     0.05800
loop_ 
_geom_bond_atom_site_label_1 
_geom_bond_atom_site_label_2 
_geom_bond_distance 
_geom_bond_site_symmetry_2 
_ccdc_geom_bond_type 
O1           C17   1.278       .  A
O1           Zn7   2.043       .  S
C2           O18   1.277       .  A
C2           O15   1.273       .  A
C2          C474   1.498       .  S
O3           C16   1.277       .  A
O3          Cd10   2.078       .  S
O4           C22   1.273       .  A
O4          Cd13   2.060       .  S
O5           C19   1.275       .  A
O5           Cd9   2.084       .  S
O6           C17   1.272       .  A
O6           Cd9   2.054       .  S
Zn7          O18   2.043       .  S
Zn7          O20   2.050       .  S
Zn7          O12   1.955       .  S
O8           C19   1.276       .  A
O8          Cd13   2.076       .  S
Cd9          O11   2.075       .  S
Cd9          O12   1.994       .  S
Cd10         O14   2.073       .  S
Cd10         O23   2.084       .  S
Cd10         O12   2.004       .  S
O11          C21   1.276       .  A
O12         Cd13   1.988       .  S
Cd13         O15   2.064       .  S
O14          C21   1.274       .  A
C16          O20   1.280       .  A
C16         C177   1.477       .  S
C17         C461   1.481       .  S
C19         C426   1.502       .  S
C21         C493   1.490       .  S
C22          O23   1.277       .  A
C22         C442   1.475       .  S
C24          C27   1.534       .  S
C24         C458   1.543       .  S
C24        C1034   1.550   1_455  S
C24         C532   1.540       .  S
C25          C30   1.531       .  S
C25         C445   1.541       .  S
C25         C533   1.540   1_545  S
C25        C1039   1.552       .  S
C26        C1032   1.559       .  S
C26          C34   1.386       .  A
C26          C29   1.398       .  A
C27          C38   1.380       .  A
C27        C1542   1.389   1_455  A
C28         C528   1.546   1_545  S
C28          C42   1.382       .  A
C28          C31   1.399       .  A
C29         C529   1.544       .  S
C29          C32   1.383       .  A
C30          C36   1.377       .  A
C30        C1539   1.389   1_545  A
C31        C1033   1.557   1_455  S
C31          C39   1.385       .  A
C32          N33   1.354       .  A
C32          H45   1.078       .  S
N33          C34   1.355       .  A
N33         C477   1.441       .  S
C34          H35   1.079       .  S
C36        N1045   1.356       .  A
C36          H46   1.082       .  S
N37        C1044   1.357   1_455  A
N37         C542   1.358   1_545  A
N37         C410   1.437       .  S
C38         N541   1.358       .  A
C38          H44   1.082       .  S
C39          N40   1.354       .  A
C39          H41   1.077       .  S
N40          C42   1.354       .  A
N40         C490   1.437       .  S
C42          H43   1.078   1_545  S
O47          C63   1.277       .  A
O47         Zn53   2.042   1_455  S
C48          O64   1.279       .  A
C48          O61   1.271       .  A
C48         C362   1.482       .  S
O49         C566   1.279   1_556  A
O49         Cd56   2.094       .  S
O50          C68   1.274       .  A
O50        Cd563   2.064       .  S
O51          C65   1.276       .  A
O51         Cd55   2.083       .  S
O52          C63   1.272       .  A
O52         Cd55   2.059       .  S
Zn53         O66   2.046       .  S
Zn53       O1072   2.053       .  S
Zn53         O58   1.955   1_655  S
O54        C1073   1.274       .  A
O54         Cd59   2.075       .  S
Cd55        O561   2.044   1_545  S
Cd55         O58   1.992       .  S
Cd56         O60   2.093       .  S
Cd56       O1077   2.096   1_455  S
Cd56        O562   2.008       .  S
O57          C67   1.273       .  A
O57        Cd559   2.053       .  S
O58        Cd560   2.005   1_545  S
O58       Cd1067   1.984   1_455  S
Cd59         O61   2.043       .  S
Cd59        O554   2.064   1_545  S
Cd59       O1066   1.978       .  S
O60          C67   1.279       .  A
C62          O66   1.279   1_554  A
C62         O553   1.278   1_644  A
C62        C1102   1.481       .  S
C63         C346   1.499       .  S
O64       Zn1061   2.052       .  S
C65        O1062   1.275   1_455  A
C65         C413   1.497       .  S
C67         C378   1.487       .  S
C68          O69   1.276       .  A
C68         C397   1.490       .  S
O69       Cd1064   2.080       .  S
C70          C72   1.542       .  S
C70          C74   1.550       .  S
C70          C73   1.532       .  S
C70         C365   1.541       .  S
C71          C75   1.546       .  S
C71          C77   1.560       .  S
C71          C76   1.536       .  S
C71         C381   1.545       .  S
C72          C80   1.380       .  A
C72          C75   1.396       .  A
C73          C84   1.378       .  A
C73          C76   1.388       .  A
C74          C88   1.380       .  A
C74          C77   1.401       .  A
C75          C78   1.378       .  A
C76          C82   1.381       .  A
C77          C85   1.392       .  A
C78          N79   1.355       .  A
C78          H91   1.080       .  S
N79          C80   1.356       .  A
N79         C394   1.435       .  S
C80          H81   1.077       .  S
C82          N83   1.358       .  A
C82          H92   1.082       .  S
N83          C84   1.358       .  A
N83         C429   1.439       .  S
C84          H90   1.082       .  S
C85          N86   1.356       .  A
C85          H87   1.074       .  S
N86          C88   1.350       .  A
N86         C349   1.440       .  S
C88          H89   1.080       .  S
O93         C109   1.274       .  A
O93         Zn99   2.007       .  S
C94         O107   1.274       .  A
C94         O614   1.274   1_545  A
C94        C1070   1.479       .  S
O95         C108   1.272       .  A
O95        Cd606   2.058       .  S
O96         C114   1.269       .  A
O96       Cd1113   2.035   1_455  S
O97         C111   1.273       .  A
O97        Cd101   2.063       .  S
O98         C109   1.273       .  A
O98        Cd605   2.046       .  S
Zn99        O110   2.048       .  S
Zn99       O1120   2.019       .  S
Zn99        O608   1.939       .  S
O100        C111   1.272       .  A
O100       Cd105   2.054       .  S
Cd101       O103   2.077       .  S
Cd101       O602   2.057   1_545  S
Cd101       O104   1.991       .  S
Cd102       O106   2.094       .  S
Cd102       O115   2.058       .  S
Cd102       O599   2.052   1_545  S
Cd102      O1112   1.994   1_455  S
O103        C113   1.273       .  A
O104       Zn603   1.934   1_545  S
O104       Cd105   1.986       .  S
O104      Cd1110   1.991       .  S
Cd105       O107   2.079       .  S
Cd105      O1104   2.040       .  S
O106       C1121   1.277   1_455  A
C108        O112   1.275       .  A
C108        C298   1.479       .  S
C109        C330   1.463       .  S
O110        C598   1.276       .  A
C111        C314   1.463       .  S
O112      Zn1107   2.007       .  S
C113       O1114   1.273       .  A
C113        C266   1.499       .  S
C114        O115   1.276       .  A
C114        C282   1.479       .  S
C116        C118   1.522       .  S
C116        C120   1.535       .  S
C116        C119   1.555       .  S
C116        C301   1.532       .  S
C117        C121   1.524       .  S
C117        C123   1.546       .  S
C117        C122   1.542       .  S
C117        C317   1.535       .  S
C118        C126   1.373       .  A
C118        C121   1.382       .  A
C119        C130   1.386       .  A
C119        C122   1.399       .  A
C120        C134   1.379       .  A
C120        C123   1.413       .  A
C121        C124   1.375       .  A
C122        C128   1.379       .  A
C123        C131   1.381       .  A
C124        N125   1.354       .  A
C124        H137   1.082       .  S
N125        C126   1.353       .  A
N125        C333   1.425       .  S
C126        H127   1.083       .  S
C128        N129   1.354       .  A
C128        H138   1.081       .  S
N129        C130   1.357       .  A
N129        C250   1.435       .  S
C130        H136   1.080       .  S
C131        N132   1.345       .  A
C131        H133   1.082       .  S
N132        C134   1.345       .  A
N132        C285   1.424       .  S
C134        H135   1.083       .  S
C139        C141   1.521   1_545  S
C139        C142   1.542       .  S
C139        C218   1.532       .  S
C139       C1151   1.546       .  S
C140        C202   1.532       .  S
C140       C1152   1.523   1_455  S
C140        C650   1.544       .  S
C140        C649   1.543       .  S
C141        C653   1.373       .  A
C141        C648   1.378       .  A
C142        C153   1.375       .  A
C142       C1153   1.395       .  A
C143       C1147   1.545       .  S
C143        C157   1.383   1_655  A
C143        C146   1.416   1_655  A
C144       C1148   1.526       .  S
C144        C147   1.374       .  A
C144        C645   1.380       .  A
C145        C644   1.546       .  S
C145       C1150   1.394   1_465  A
C145        C655   1.382       .  A
C146        C644   1.548   1_545  S
C146        C154   1.383       .  A
C147        N148   1.353       .  A
C147        H160   1.082       .  S
N148        C149   1.353       .  A
N148        C234   1.423       .  S
C149        C645   1.372       .  A
C149        H654   1.083       .  S
H150        C653   1.082       .  S
C151        C649   1.381       .  A
C151       N1664   1.358   1_455  A
C151        H161   1.082       .  S
N152        C153   1.357       .  A
N152       C1663   1.360       .  A
N152        C269   1.439       .  S
C153        H159   1.081       .  S
C154        N155   1.345       .  A
C154        H156   1.083       .  S
N155        C157   1.343       .  A
N155        C189   1.424       .  S
C157        H158   1.083   1_455  S
O162        C178   1.272       .  A
O162       Zn168   1.996       .  S
C163        O179   1.273       .  A
C163        O176   1.272       .  A
C163        C221   1.462       .  S
O164        C177   1.273       .  A
O164       Cd171   2.079       .  S
O165        C183   1.273       .  A
O165       Cd174   2.056       .  S
O166        C180   1.275       .  A
O166       Cd170   2.078       .  S
O167        C178   1.274       .  A
O167       Cd170   2.053       .  S
Zn168       O179   2.004       .  S
Zn168       O181   2.033       .  S
Zn168       O173   1.929       .  S
O169        C180   1.272       .  A
O169       Cd174   2.065       .  S
Cd170       O172   2.058       .  S
Cd170       O173   1.995       .  S
Cd171       O175   2.046       .  S
Cd171       O184   2.046       .  S
Cd171       O173   1.984       .  S
O172        C182   1.274       .  A
O173       Cd174   1.989       .  S
Cd174       O176   2.056       .  S
O175        C182   1.271       .  A
C177        O181   1.275       .  A
C178        C186   1.468       .  S
C180        C253   1.484       .  S
C182        C205   1.488       .  S
C183        O184   1.272       .  A
C183        C237   1.468       .  S
C185        C186   1.402       .  A
C185        C190   1.397       .  A
C185        H192   1.084       .  S
C186        C187   1.416       .  A
C187        C194   1.508       .  S
C187        C188   1.401       .  A
C188        C189   1.397       .  A
C188        H193   1.083       .  S
C189        C190   1.407       .  A
C190        C191   1.506       .  S
C191        H195   1.110       .  S
C191        H196   1.110       .  S
C191        H197   1.110       .  S
C194        H198   1.110       .  S
C194        H199   1.109       .  S
C194        H200   1.110       .  S
C201        C202   1.408       .  A
C201        C206   1.395       .  A
C201        H208   1.078       .  S
C202        C203   1.423       .  A
C203        C210   1.511       .  S
C203        C204   1.403       .  A
C204        C205   1.407       .  A
C204        H209   1.084       .  S
C205        C206   1.417       .  A
C206        C207   1.512       .  S
C207        H211   1.111       .  S
C207        H212   1.110       .  S
C207        H213   1.110       .  S
C210        H214   1.110       .  S
C210        H216   1.111       .  S
C210       H1223   1.103   1_455  S
H215       C1218   1.102       .  S
C217        C218   1.411       .  A
C217        C222   1.393       .  A
C217        H224   1.080       .  S
C218        C219   1.426       .  A
C219        C226   1.509       .  S
C219        C220   1.405       .  A
C220        C221   1.399       .  A
C220        H225   1.085       .  S
C221        C222   1.403       .  A
C222        C223   1.509       .  S
C223        H227   1.111       .  S
C223        H228   1.110       .  S
C223        H229   1.111       .  S
C226        H230   1.105       .  S
C226        H231   1.110       .  S
C226        H232   1.110       .  S
C233        C234   1.398       .  A
C233        C238   1.398       .  A
C233        H240   1.084       .  S
C234        C235   1.402       .  A
C235        C242   1.502       .  S
C235        C236   1.399       .  A
C236        C237   1.405       .  A
C236        H241   1.084       .  S
C237        C238   1.415       .  A
C238        C239   1.508       .  S
C239        H243   1.111       .  S
C239        H244   1.111       .  S
C239        H245   1.109       .  S
C242        H246   1.110       .  S
C242        H247   1.110       .  S
C242        H248   1.110       .  S
C249        C250   1.400       .  A
C249        C254   1.405       .  A
C249        H256   1.084       .  S
C250        C251   1.410       .  A
C251        C258   1.500       .  S
C251        C252   1.402       .  A
C252        C253   1.405       .  A
C252        H257   1.085       .  S
C253        C254   1.419       .  A
C254        C255   1.508       .  S
C255        H259   1.111       .  S
C255        H260   1.109       .  S
C255        H261   1.110       .  S
C258        H262   1.101       .  S
C258        H263   1.110       .  S
C258        H264   1.110       .  S
C265        C270   1.409       .  A
C265       C1274   1.412   1_455  A
C265        H272   1.083       .  S
C266       C1273   1.413       .  A
C266        C771   1.423       .  A
C267        C274   1.508       .  S
C267        C268   1.406       .  A
C267        C770   1.424       .  A
C268        C773   1.398       .  A
C268        H273   1.084       .  S
C269        C772   1.401       .  A
C269       C1278   1.407       .  A
C270        C271   1.504       .  S
C270       C1277   1.409       .  A
C271        H275   1.111       .  S
C271        H276   1.108       .  S
C271       H1285   1.109       .  S
C274        H279   1.110       .  S
C274        H280   1.111       .  S
C274       H1286   1.110       .  S
H277       C1279   1.109       .  S
H278       C1282   1.110       .  S
C281        C282   1.405       .  A
C281        C286   1.394       .  A
C281        H288   1.084       .  S
C282        C283   1.424       .  A
C283        C290   1.509       .  S
C283        C284   1.400       .  A
C284        C285   1.394       .  A
C284        H289   1.084       .  S
C285        C286   1.405       .  A
C286        C287   1.502       .  S
C287        H291   1.111       .  S
C287        H292   1.109       .  S
C287        H293   1.108       .  S
C290        H294   1.110       .  S
C290        H295   1.110       .  S
C290        H296   1.110       .  S
C297        C298   1.398       .  A
C297        C302   1.400       .  A
C297        H304   1.085       .  S
C298        C299   1.413       .  A
C299        C306   1.508       .  S
C299        C300   1.403       .  A
C300        C301   1.407       .  A
C300        H305   1.076       .  S
C301        C302   1.428       .  A
C302        C303   1.514       .  S
C303        H307   1.111       .  S
C303        H308   1.105       .  S
C303        H309   1.108       .  S
C306        H310   1.110       .  S
C306        H311   1.110       .  S
C306        H312   1.111       .  S
C313        C314   1.397       .  A
C313        C318   1.402       .  A
C313        H320   1.085       .  S
C314        C315   1.403       .  A
C315        C322   1.508       .  S
C315        C316   1.397       .  A
C316        C317   1.413       .  A
C316        H321   1.080       .  S
C317        C318   1.427       .  A
C318        C319   1.509       .  S
C319        H323   1.110       .  S
C319        H324   1.102       .  S
C319        H325   1.111       .  S
C322        H326   1.111       .  S
C322        H327   1.110       .  S
C322        H328   1.111       .  S
C329        C330   1.399       .  A
C329        C334   1.396       .  A
C329        H336   1.085       .  S
C330        C331   1.413       .  A
C331        C338   1.507       .  S
C331        C332   1.402       .  A
C332        C333   1.399       .  A
C332        H337   1.083       .  S
C333        C334   1.408       .  A
C334        C335   1.505       .  S
C335        H339   1.111       .  S
C335        H340   1.107       .  S
C335        H341   1.110       .  S
C338        H342   1.109       .  S
C338        H343   1.111       .  S
C338        H344   1.110       .  S
C345        C346   1.413       .  A
C345        C350   1.406       .  A
C345        H352   1.084       .  S
C346        C347   1.424       .  A
C347        C354   1.510       .  S
C347        C348   1.401       .  A
C348        C349   1.402       .  A
C348        H353   1.084       .  S
C349        C350   1.409       .  A
C350        C351   1.505       .  S
C351        H355   1.110       .  S
C351        H356   1.109       .  S
C351        H357   1.110   1_556  S
C354        H358   1.110       .  S
C354        H359   1.110       .  S
C354        H360   1.111       .  S
C361        C362   1.406       .  A
C361        C366   1.410       .  A
C361        H368   1.084       .  S
C362        C363   1.415       .  A
C363        C370   1.510       .  S
C363        C364   1.397       .  A
C364        C365   1.404       .  A
C364        H369   1.081       .  S
C365        C366   1.422       .  A
C366        C367   1.507       .  S
C367        H371   1.110       .  S
C367        H372   1.110       .  S
C367        H373   1.107       .  S
C370        H374   1.111       .  S
C370        H375   1.109       .  S
C370        H376   1.111       .  S
C377        C378   1.405       .  A
C377        C382   1.405       .  A
C377        H384   1.084       .  S
C378        C379   1.412       .  A
C379        C386   1.509       .  S
C379        C380   1.404       .  A
C380        C381   1.405       .  A
C380        H385   1.066       .  S
C381        C382   1.426       .  A
C382        C383   1.512       .  S
C383        H387   1.110       .  S
C383        H388   1.110       .  S
C383        H389   1.103       .  S
C386        H390   1.111       .  S
C386        H391   1.109       .  S
C386        H392   1.111       .  S
C393        C394   1.400       .  A
C393        C398   1.399       .  A
C393        H400   1.084       .  S
C394        C395   1.407       .  A
C395        C402   1.504       .  S
C395        C396   1.407       .  A
C396        C397   1.412       .  A
C396        H401   1.084       .  S
C397        C398   1.420       .  A
C398        C399   1.510       .  S
C399        H403   1.111       .  S
C399        H404   1.110       .  S
C399        H405   1.110       .  S
C402        H406   1.109       .  S
C402        H407   1.109   1_556  S
C402        H408   1.110   1_556  S
C409        C414   1.405       .  A
C409       C1922   1.398       .  A
C409        H416   1.084       .  S
C410        C411   1.406       .  A
C410       C1921   1.398   1_445  A
C411        C418   1.505       .  S
C411        C412   1.407       .  A
C412        C413   1.410       .  A
C412        H417   1.084       .  S
C413       C1926   1.423   1_445  A
C414        C415   1.508       .  S
C414       C1925   1.425       .  A
C415        H419   1.111       .  S
C415        H420   1.110       .  S
C415       H1429   1.110       .  S
C418        H423   1.111       .  S
C418        H424   1.111       .  S
C418       H1430   1.110       .  S
H421       C1423   1.110       .  S
H422       C1426   1.110       .  S
C425        C426   1.412       .  A
C425        C430   1.405       .  A
C425        H432   1.083       .  S
C426        C427   1.425       .  A
C427        C434   1.508       .  S
C427        C428   1.409       .  A
C428        C429   1.400       .  A
C428        H433   1.084       .  S
C429        C430   1.407       .  A
C430        C431   1.506       .  S
C431        H435   1.111       .  S
C431        H436   1.109       .  S
C431        H437   1.111       .  S
C434        H438   1.110       .  S
C434        H439   1.110       .  S
C434        H440   1.111       .  S
C441        C442   1.402       .  A
C441        C446   1.406       .  A
C441        H448   1.085       .  S
C442        C443   1.409       .  A
C443        C450   1.508       .  S
C443        C444   1.400       .  A
C444        C445   1.407       .  A
C444        H449   1.079       .  S
C445        C446   1.423       .  A
C446        C447   1.509       .  S
C447        H451   1.110       .  S
C447        H453   1.110       .  S
C447        H956   1.106       .  S
C450        H454   1.109       .  S
C450        H455   1.110       .  S
C450        H456   1.111       .  S
H452        C951   1.106       .  S
C457        C458   1.407       .  A
C457        C462   1.402       .  A
C457        H464   1.079       .  S
C458        C459   1.422       .  A
C459        C466   1.509       .  S
C459        C460   1.406       .  A
C460        C461   1.404       .  A
C460        H465   1.085       .  S
C461        C462   1.413       .  A
C462        C463   1.509       .  S
C463        H467   1.111       .  S
C463        H468   1.109       .  S
C463        H469   1.110       .  S
C466        H470   1.110       .  S
C466        H472   1.110       .  S
C466        H975   1.106       .  S
H471        C970   1.105       .  S
C473        C474   1.413       .  A
C473        C478   1.410       .  A
C473        H480   1.083       .  S
C474        C475   1.423       .  A
C475        C482   1.510       .  S
C475        C476   1.402       .  A
C476        C477   1.400       .  A
C476        H481   1.084       .  S
C477        C478   1.406       .  A
C478        C479   1.503       .  S
C479        H483   1.110       .  S
C479        H484   1.110       .  S
C479        H485   1.109       .  S
C482        H486   1.110       .  S
C482        H487   1.111       .  S
C482        H488   1.111       .  S
C489        C490   1.401       .  A
C489        C494   1.399       .  A
C489        H496   1.084       .  S
C490        C491   1.407       .  A
C491        C498   1.504       .  S
C491        C492   1.409       .  A
C492        C493   1.413       .  A
C492        H497   1.084       .  S
C493        C494   1.418       .  A
C494        C495   1.510       .  S
C495        H499   1.111       .  S
C495        H500   1.109       .  S
C495        H501   1.111       .  S
C498        H502   1.109       .  S
C498        H503   1.110       .  S
C498        H504   1.108       .  S
O505        C521   1.278       .  A
O505       Zn511   2.043       .  S
C506        O522   1.276       .  A
C506        O519   1.272       .  A
C506        C978   1.497       .  S
O507        C520   1.276       .  A
O507       Cd514   2.072       .  S
O508        C526   1.273       .  A
O508       Cd517   2.057       .  S
O509        C523   1.274       .  A
O509       Cd513   2.072       .  S
O510        C521   1.273       .  A
O510       Cd513   2.050       .  S
Zn511       O522   2.039       .  S
Zn511       O524   2.053       .  S
Zn511       O516   1.954       .  S
O512        C523   1.275       .  A
O512       Cd517   2.076       .  S
Cd513       O515   2.071       .  S
Cd513       O516   1.992       .  S
Cd514       O518   2.072       .  S
Cd514       O527   2.083       .  S
Cd514       O516   1.998       .  S
O515        C525   1.275       .  A
O516       Cd517   1.989       .  S
Cd517       O519   2.056       .  S
O518        C525   1.273       .  A
C520        O524   1.280       .  A
C520        C681   1.477       .  S
C521        C965   1.478       .  S
C523        C930   1.481       .  S
C525        C997   1.476       .  S
C526        O527   1.277       .  A
C526        C946   1.474       .  S
C528       C1538   1.560   1_455  S
C528        C531   1.534       .  S
C528        C962   1.542       .  S
C529       C1543   1.554       .  S
C529        C534   1.527       .  S
C529        C949   1.540       .  S
C530       C1536   1.559       .  S
C530        C538   1.383       .  A
C530        C533   1.398       .  A
C531        C542   1.381       .  A
C531       C1038   1.388   1_465  A
C532        C546   1.377       .  A
C532        C535   1.401       .  A
C533        C536   1.380       .  A
C534       C1035   1.386       .  A
C534        C540   1.374       .  A
C535       C1537   1.560   1_455  S
C535        C543   1.386       .  A
C536        N537   1.355       .  A
C536        H549   1.077       .  S
N537        C538   1.356       .  A
N537        C981   1.440       .  S
C538        H539   1.080       .  S
C540       N1549   1.356       .  A
C540        H550   1.083       .  S
N541       C1548   1.356   1_455  A
N541        C914   1.434       .  S
C542        H548   1.082       .  S
C543        N544   1.354       .  A
C543        H545   1.078       .  S
N544        C546   1.352       .  A
N544        C994   1.434       .  S
C546        H547   1.078       .  S
O551        C567   1.276       .  A
O551       Zn557   2.031   1_455  S
C552        O568   1.277       .  A
C552        O565   1.272       .  A
C552        C866   1.479       .  S
O553       Cd560   2.091       .  S
O554        C572   1.273       .  A
O555        C569   1.275       .  A
O555       Cd559   2.081       .  S
O556        C567   1.273       .  A
O556       Cd559   2.059       .  S
Zn557      O1576   2.046       .  S
Zn557       O570   2.044       .  S
Zn557       O562   1.951   1_655  S
O558       C1577   1.275       .  A
O558       Cd563   2.083       .  S
Cd559       O562   1.992       .  S
Cd560       O564   2.083       .  S
Cd560      O1581   2.089   1_455  S
O561        C571   1.272       .  A
O562      Cd1571   1.981   1_455  S
Cd563       O565   2.052       .  S
Cd563      O1570   1.988       .  S
O564        C571   1.278       .  A
C566        O570   1.279   1_454  A
C566       C1606   1.481   1_455  S
C567        C850   1.489       .  S
O568      Zn1565   2.041       .  S
C569       O1566   1.274   1_455  A
C569        C917   1.492       .  S
C571        C882   1.481       .  S
C572        O573   1.277       .  A
C572        C901   1.502       .  S
O573      Cd1568   2.094       .  S
C574        C576   1.550       .  S
C574        C578   1.552       .  S
C574        C577   1.529       .  S
C574        C869   1.540       .  S
C575        C579   1.545       .  S
C575        C581   1.556       .  S
C575        C580   1.533       .  S
C575        C885   1.541       .  S
C576        C584   1.385       .  A
C576        C579   1.397       .  A
C577        C588   1.376       .  A
C577        C580   1.386       .  A
C578        C592   1.382       .  A
C578        C581   1.400       .  A
C579        C582   1.377       .  A
C580        C586   1.379       .  A
C581        C589   1.389       .  A
C582        N583   1.358       .  A
C582        H595   1.081       .  S
N583        C584   1.360       .  A
N583        C898   1.446       .  S
C584        H585   1.077       .  S
C586        N587   1.358       .  A
C586        H596   1.082       .  S
N587        C588   1.356       .  A
N587        C933   1.434       .  S
C588        H594   1.082       .  S
C589        N590   1.352       .  A
C589        H591   1.077       .  S
N590        C592   1.351       .  A
N590        C853   1.436       .  S
C592        H593   1.080       .  S
O597        C613   1.271       .  A
O597       Zn603   1.988       .  S
C598        O611   1.274       .  A
C598       C1574   1.482       .  S
O599        C612   1.272       .  A
O600        C618   1.272       .  A
O600      Cd1617   2.041   1_455  S
O601        C615   1.273       .  A
O601       Cd605   2.061       .  S
O602        C613   1.275       .  A
Zn603       O614   2.038       .  S
Zn603      O1624   2.005       .  S
O604        C615   1.273       .  A
O604       Cd609   2.059       .  S
Cd605       O607   2.070       .  S
Cd605       O608   1.989       .  S
Cd606       O610   2.082       .  S
Cd606       O619   2.053       .  S
Cd606      O1616   1.997   1_455  S
O607        C617   1.272       .  A
O608      Cd1614   1.997       .  S
O608       Cd609   1.992       .  S
Cd609      O1608   2.046       .  S
Cd609       O611   2.081       .  S
O610       C1625   1.275   1_455  A
C612        O616   1.275       .  A
C612        C802   1.476       .  S
C613        C834   1.468       .  S
C615        C818   1.464       .  S
O616      Zn1611   2.012       .  S
C617       O1618   1.276       .  A
C617        C770   1.497       .  S
C618        O619   1.274       .  A
C618        C786   1.459       .  S
C620        C622   1.517       .  S
C620        C624   1.527       .  S
C620        C623   1.556       .  S
C620        C805   1.531       .  S
C621        C625   1.528       .  S
C621        C627   1.547       .  S
C621        C626   1.539       .  S
C621        C821   1.535       .  S
C622        C630   1.368       .  A
C622        C625   1.385       .  A
C623        C634   1.386       .  A
C623        C626   1.399       .  A
C624        C638   1.374       .  A
C624        C627   1.411       .  A
C625        C628   1.377       .  A
C626        C632   1.376       .  A
C627        C635   1.382       .  A
C628        N629   1.354       .  A
C628        H641   1.082       .  S
N629        C630   1.349       .  A
N629        C837   1.422       .  S
C630        H631   1.083       .  S
C632        N633   1.353       .  A
C632        H642   1.081       .  S
N633        C634   1.356       .  A
N633        C754   1.435       .  S
C634        H640   1.080       .  S
C635        N636   1.346       .  A
C635        H637   1.083       .  S
N636        C638   1.343       .  A
N636        C789   1.421       .  S
C638        H639   1.083       .  S
C643        C645   1.520       .  S
C643       C1655   1.543       .  S
C643        C646   1.546       .  S
C643        C722   1.530       .  S
C644       C1656   1.524   1_455  S
C644        C706   1.534       .  S
C646        C657   1.379       .  A
C646       C1657   1.396       .  A
C647       C1651   1.547       .  S
C647        C661   1.385   1_655  A
C647        C650   1.414   1_655  A
C648       C1652   1.520       .  S
C648        C651   1.371       .  A
C649       C1654   1.395   1_455  A
C650        C658   1.382       .  A
C651        N652   1.353       .  A
C651        H664   1.083       .  S
N652        C653   1.356       .  A
N652        C738   1.428       .  S
C655       N1160   1.360   1_565  A
C655        H665   1.081       .  S
N656       C1159   1.358       .  A
N656        C657   1.357       .  A
N656        C773   1.437       .  S
C657        H663   1.081       .  S
C658        N659   1.343       .  A
C658        H660   1.083       .  S
N659        C661   1.345       .  A
N659        C693   1.424       .  S
C661        H662   1.082   1_455  S
O666        C682   1.273       .  A
O666       Zn672   1.997       .  S
C667        O683   1.272       .  A
C667        O680   1.271       .  A
C667        C725   1.461       .  S
O668        C681   1.274       .  A
O668       Cd675   2.081       .  S
O669        C687   1.272       .  A
O669       Cd678   2.056       .  S
O670        C684   1.275       .  A
O670       Cd674   2.076       .  S
O671        C682   1.274       .  A
O671       Cd674   2.057       .  S
Zn672       O683   2.006       .  S
Zn672       O685   2.032       .  S
Zn672       O677   1.932       .  S
O673        C684   1.272       .  A
O673       Cd678   2.068       .  S
Cd674       O676   2.061       .  S
Cd674       O677   1.997       .  S
Cd675       O679   2.052       .  S
Cd675       O688   2.044       .  S
Cd675       O677   1.989       .  S
O676        C686   1.275       .  A
O677       Cd678   1.988       .  S
Cd678       O680   2.051       .  S
O679        C686   1.272       .  A
C681        O685   1.275       .  A
C682        C690   1.468       .  S
C684        C757   1.493       .  S
C686        C709   1.488       .  S
C687        O688   1.273       .  A
C687        C741   1.484       .  S
C689        C690   1.403       .  A
C689        C694   1.399       .  A
C689        H696   1.084       .  S
C690        C691   1.415       .  A
C691        C698   1.508       .  S
C691        C692   1.400       .  A
C692        C693   1.396       .  A
C692        H697   1.084       .  S
C693        C694   1.407       .  A
C694        C695   1.504       .  S
C695        H699   1.111       .  S
C695        H700   1.110       .  S
C695        H701   1.110       .  S
C698        H702   1.110       .  S
C698        H703   1.109       .  S
C698        H704   1.108       .  S
C705        C706   1.411       .  A
C705        C710   1.398       .  A
C705        H712   1.078       .  S
C706        C707   1.424       .  A
C707        C714   1.511       .  S
C707        C708   1.402       .  A
C708        C709   1.405       .  A
C708        H713   1.084       .  S
C709        C710   1.416       .  A
C710        C711   1.512       .  S
C711        H715   1.111       .  S
C711        H716   1.110       .  S
C711        H717   1.110       .  S
C714        H718   1.110       .  S
C714       H1727   1.102       .  S
C714        H720   1.111       .  S
H719       C1722   1.103       .  S
C721        C722   1.412       .  A
C721        C726   1.395       .  A
C721        H728   1.081       .  S
C722        C723   1.424       .  A
C723        C730   1.509       .  S
C723        C724   1.403       .  A
C724        C725   1.398       .  A
C724        H729   1.085       .  S
C725        C726   1.403       .  A
C726        C727   1.509       .  S
C727        H731   1.111       .  S
C727        H732   1.110       .  S
C727        H733   1.110       .  S
C730        H734   1.104       .  S
C730        H735   1.110       .  S
C730        H736   1.111       .  S
C737        C738   1.399       .  A
C737        C742   1.400       .  A
C737        H744   1.084       .  S
C738        C739   1.405       .  A
C739        C746   1.507       .  S
C739        C740   1.397       .  A
C740        C741   1.410       .  A
C740        H745   1.084       .  S
C741        C742   1.421       .  A
C742        C743   1.509       .  S
C743        H747   1.111       .  S
C743        H748   1.110       .  S
C743        H749   1.110       .  S
C746        H750   1.110       .  S
C746        H751   1.110       .  S
C746        H752   1.108       .  S
C753        C754   1.399       .  A
C753        C758   1.404       .  A
C753        H760   1.084       .  S
C754        C755   1.406       .  A
C755        C762   1.504       .  S
C755        C756   1.405       .  A
C756        C757   1.410       .  A
C756        H761   1.084       .  S
C757        C758   1.423       .  A
C758        C759   1.509       .  S
C759        H763   1.111       .  S
C759        H764   1.109       .  S
C759        H765   1.111       .  S
C762        H766   1.109       .  S
C762        H767   1.110       .  S
C762        H768   1.111       .  S
C769       C1778   1.410   1_455  A
C769        C774   1.406       .  A
C769        H776   1.084       .  S
C770       C1777   1.410       .  A
C771        C778   1.509       .  S
C771        C772   1.404       .  A
C772        H777   1.084       .  S
C773       C1782   1.406       .  A
C774        C775   1.502       .  S
C774       C1781   1.406   1_455  A
C775        H779   1.111       .  S
C775        H780   1.110       .  S
C775       H1789   1.109       .  S
C778       H1790   1.110   1_545  S
C778        H783   1.110       .  S
C778        H784   1.111       .  S
H781       C1783   1.109       .  S
H782       C1786   1.110   1_565  S
C785        C786   1.401       .  A
C785        C790   1.398       .  A
C785        H792   1.084       .  S
C786        C787   1.413       .  A
C787        C794   1.508       .  S
C787        C788   1.396       .  A
C788        C789   1.396       .  A
C788        H793   1.084       .  S
C789        C790   1.409       .  A
C790        C791   1.506       .  S
C791        H795   1.111       .  S
C791        H796   1.109       .  S
C791        H797   1.110       .  S
C794        H798   1.110       .  S
C794        H799   1.110       .  S
C794        H800   1.110       .  S
C801        C802   1.399       .  A
C801        C806   1.401       .  A
C801        H808   1.084       .  S
C802        C803   1.413       .  A
C803        C810   1.509       .  S
C803        C804   1.400       .  A
C804        C805   1.405       .  A
C804        H809   1.075       .  S
C805        C806   1.428       .  A
C806        C807   1.514       .  S
C807        H811   1.111       .  S
C807        H812   1.105       .  S
C807        H813   1.108       .  S
C810        H814   1.110       .  S
C810        H815   1.109       .  S
C810        H816   1.111       .  S
C817        C818   1.398       .  A
C817        C822   1.404       .  A
C817        H824   1.085       .  S
C818        C819   1.403       .  A
C819        C826   1.508       .  S
C819        C820   1.397       .  A
C820        C821   1.414       .  A
C820        H825   1.080       .  S
C821        C822   1.427       .  A
C822        C823   1.510       .  S
C823        H827   1.110       .  S
C823        H828   1.103       .  S
C823        H829   1.111       .  S
C826        H830   1.111       .  S
C826        H831   1.110       .  S
C826        H832   1.111       .  S
C833        C834   1.403       .  A
C833        C838   1.397       .  A
C833        H840   1.084       .  S
C834        C835   1.418       .  A
C835        C842   1.509       .  S
C835        C836   1.399       .  A
C836        C837   1.395       .  A
C836        H841   1.084       .  S
C837        C838   1.407       .  A
C838        C839   1.507       .  S
C839        H843   1.111       .  S
C839        H844   1.110       .  S
C839        H845   1.110       .  S
C842        H846   1.109       .  S
C842        H847   1.111       .  S
C842        H848   1.111       .  S
C849        C850   1.411       .  A
C849        C854   1.407       .  A
C849        H856   1.084       .  S
C850        C851   1.420       .  A
C851        C858   1.510       .  S
C851        C852   1.399       .  A
C852        C853   1.401       .  A
C852        H857   1.084       .  S
C853        C854   1.407       .  A
C854        C855   1.504       .  S
C855        H859   1.110       .  S
C855        H860   1.109       .  S
C855        H861   1.109   1_556  S
C858        H862   1.111       .  S
C858        H863   1.109       .  S
C858        H864   1.111       .  S
C865        C866   1.404       .  A
C865        C870   1.407       .  A
C865        H872   1.084       .  S
C866        C867   1.413       .  A
C867        C874   1.509       .  S
C867        C868   1.399       .  A
C868        C869   1.407       .  A
C868        H873   1.080       .  S
C869        C870   1.421       .  A
C870        C871   1.507       .  S
C871        H875   1.109       .  S
C871        H876   1.111       .  S
C871        H877   1.107       .  S
C874        H878   1.110       .  S
C874        H879   1.109       .  S
C874        H880   1.111       .  S
C881        C882   1.405       .  A
C881        C886   1.403       .  A
C881        H888   1.085       .  S
C882        C883   1.411       .  A
C883        C890   1.509       .  S
C883        C884   1.401       .  A
C884        C885   1.405       .  A
C884        H889   1.072       .  S
C885        C886   1.423       .  A
C886        C887   1.509       .  S
C887        H891   1.109       .  S
C887        H892   1.110       .  S
C887        H893   1.104       .  S
C890        H894   1.110       .  S
C890        H895   1.109       .  S
C890        H896   1.111       .  S
C897        C898   1.402       .  A
C897        C902   1.401       .  A
C897        H904   1.080       .  S
C898        C899   1.412       .  A
C899        C906   1.505       .  S
C899        C900   1.410       .  A
C900        C901   1.414       .  A
C900        H905   1.084       .  S
C901        C902   1.424       .  A
C902        C903   1.511       .  S
C903        H907   1.111       .  S
C903        H908   1.110       .  S
C903        H909   1.110       .  S
C906        H910   1.108       .  S
C906        H911   1.111   1_556  S
C906        H912   1.110       .  S
C913       C1418   1.398   1_565  A
C913        C918   1.408       .  A
C913        H920   1.084       .  S
C914       C1417   1.397   1_455  A
C914        C915   1.407       .  A
C915        C922   1.505       .  S
C915        C916   1.406       .  A
C916        C917   1.410       .  A
C916        H921   1.084       .  S
C917       C1422   1.422   1_455  A
C918        C919   1.508       .  S
C918       C1421   1.424   1_565  A
C919        H923   1.111       .  S
C919        H924   1.110       .  S
C919       H1933   1.110       .  S
C922       H1934   1.110       .  S
C922        H927   1.111       .  S
C922        H928   1.111       .  S
H925       C1927   1.110       .  S
H926       C1930   1.111       .  S
C929        C930   1.405       .  A
C929        C934   1.404       .  A
C929        H936   1.084       .  S
C930        C931   1.416       .  A
C931        C938   1.508       .  S
C931        C932   1.406       .  A
C932        C933   1.401       .  A
C932        H937   1.084       .  S
C933        C934   1.408       .  A
C934        C935   1.505       .  S
C935        H939   1.111       .  S
C935        H940   1.110       .  S
C935        H941   1.110       .  S
C938        H942   1.110       .  S
C938        H943   1.110       .  S
C938        H944   1.111       .  S
C945        C946   1.400       .  A
C945        C950   1.404       .  A
C945        H952   1.085       .  S
C946        C947   1.410       .  A
C947        C954   1.508       .  S
C947        C948   1.402       .  A
C948        C949   1.407       .  A
C948        H953   1.077       .  S
C949        C950   1.424       .  A
C950        C951   1.510       .  S
C951        H955   1.110       .  S
C951        H957   1.110       .  S
C954        H958   1.110       .  S
C954        H959   1.110       .  S
C954        H960   1.111       .  S
C961        C962   1.404       .  A
C961        C966   1.400       .  A
C961        H968   1.074       .  S
C962        C963   1.425       .  A
C963        C970   1.510       .  S
C963        C964   1.407       .  A
C964        C965   1.403       .  A
C964        H969   1.085       .  S
C965        C966   1.411       .  A
C966        C967   1.509       .  S
C967        H971   1.111       .  S
C967        H972   1.109       .  S
C967        H973   1.110       .  S
C970        H974   1.110       .  S
C970        H976   1.110       .  S
C977        C978   1.413       .  A
C977        C982   1.409       .  A
C977        H984   1.083       .  S
C978        C979   1.424       .  A
C979        C986   1.511       .  S
C979        C980   1.400       .  A
C980        C981   1.401       .  A
C980        H985   1.084       .  S
C981        C982   1.407       .  A
C982        C983   1.504       .  S
C983        H987   1.110       .  S
C983        H988   1.110       .  S
C983        H989   1.108       .  S
C986        H990   1.110       .  S
C986        H991   1.110       .  S
C986        H992   1.111       .  S
C993        C994   1.403       .  A
C993        C998   1.400       .  A
C993       H1000   1.084       .  S
C994        C995   1.407       .  A
C995       C1002   1.503       .  S
C995        C996   1.407       .  A
C996        C997   1.408       .  A
C996       H1001   1.084       .  S
C997        C998   1.413       .  A
C998        C999   1.508       .  S
C999       H1003   1.111       .  S
C999       H1004   1.109       .  S
C999       H1005   1.110       .  S
C1002      H1006   1.109       .  S
C1002      H1007   1.110       .  S
C1002      H1008   1.110       .  S
O1009      C1025   1.277       .  A
O1009     Zn1015   2.041       .  S
C1010      O1026   1.276       .  A
C1010      O1023   1.272       .  A
C1010      C1482   1.499       .  S
O1011      C1024   1.276       .  A
O1011     Cd1018   2.067       .  S
O1012      C1030   1.273       .  A
O1012     Cd1021   2.058       .  S
O1013      C1027   1.274       .  A
O1013     Cd1017   2.073       .  S
O1014      C1025   1.271       .  A
O1014     Cd1017   2.047       .  S
Zn1015     O1026   2.038       .  S
Zn1015     O1028   2.034       .  S
Zn1015     O1020   1.953       .  S
O1016      C1027   1.275       .  A
O1016     Cd1021   2.078       .  S
Cd1017     O1019   2.061       .  S
Cd1017     O1020   1.983       .  S
Cd1018     O1022   2.075       .  S
Cd1018     O1031   2.081       .  S
Cd1018     O1020   2.002       .  S
O1019      C1029   1.273       .  A
O1020     Cd1021   1.983       .  S
Cd1021     O1023   2.058       .  S
O1022      C1029   1.274       .  A
C1024      O1028   1.278       .  A
C1024      C1185   1.469       .  S
C1025      C1469   1.478       .  S
C1027      C1434   1.483       .  S
C1029      C1501   1.496       .  S
C1030      O1031   1.276       .  A
C1030      C1450   1.472       .  S
C1032      C1540   1.546       .  S
C1032      C1035   1.533       .  S
C1032      C1466   1.543       .  S
C1033      C1541   1.541   1_545  S
C1033      C1038   1.533       .  S
C1033      C1453   1.543       .  S
C1034      C1042   1.379       .  A
C1034      C1037   1.396       .  A
C1035      C1046   1.380       .  A
C1036      C1536   1.547   1_545  S
C1036      C1050   1.384       .  A
C1036      C1039   1.398       .  A
C1037      C1537   1.549       .  S
C1037      C1040   1.386       .  A
C1038      C1044   1.379       .  A
C1039      C1047   1.379       .  A
C1040      N1041   1.358       .  A
C1040      H1053   1.076       .  S
N1041      C1042   1.355       .  A
N1041      C1485   1.446       .  S
C1042      H1043   1.080       .  S
C1044      H1054   1.082       .  S
N1045      C1550   1.359   1_545  A
N1045      C1418   1.436       .  S
C1046      N1549   1.359       .  A
C1046      H1052   1.082       .  S
C1047      N1048   1.353       .  A
C1047      H1049   1.080       .  S
N1048      C1050   1.357       .  A
N1048      C1498   1.441       .  S
C1050      H1051   1.078       .  S
O1055      C1071   1.276       .  A
O1055     Zn1061   2.034       .  S
C1056      O1072   1.279       .  A
C1056      O1069   1.273       .  A
C1056      C1370   1.480       .  S
O1057      C1574   1.278   1_556  A
O1057     Cd1064   2.092       .  S
O1058      C1076   1.272       .  A
O1058     Cd1571   2.060       .  S
O1059      C1073   1.277       .  A
O1059     Cd1063   2.085       .  S
O1060      C1071   1.273       .  A
O1060     Cd1063   2.061       .  S
Zn1061     O1074   2.036       .  S
Zn1061     O1066   1.952       .  S
O1062     Cd1067   2.084       .  S
Cd1063     O1569   2.049   1_545  S
Cd1063     O1066   1.988       .  S
Cd1064     O1068   2.094       .  S
Cd1064     O1570   2.004       .  S
O1065      C1075   1.273       .  A
O1065     Cd1567   2.052       .  S
O1066     Cd1568   2.006   1_545  S
Cd1067     O1562   2.081   1_545  S
Cd1067     O1069   2.045       .  S
O1068      C1075   1.279       .  A
C1070      O1561   1.280   1_544  A
C1070      O1074   1.278   1_554  A
C1071      C1354   1.498       .  S
C1073      C1421   1.495       .  S
C1075      C1386   1.488       .  S
C1076      O1077   1.278       .  A
C1076      C1405   1.501       .  S
C1078      C1080   1.542       .  S
C1078      C1082   1.549       .  S
C1078      C1081   1.531       .  S
C1078      C1373   1.541       .  S
C1079      C1083   1.549       .  S
C1079      C1085   1.561       .  S
C1079      C1084   1.536       .  S
C1079      C1389   1.547       .  S
C1080      C1088   1.380       .  A
C1080      C1083   1.397       .  A
C1081      C1092   1.377       .  A
C1081      C1084   1.389       .  A
C1082      C1096   1.380       .  A
C1082      C1085   1.401       .  A
C1083      C1086   1.380       .  A
C1084      C1090   1.381       .  A
C1085      C1093   1.391       .  A
C1086      N1087   1.358       .  A
C1086      H1099   1.080       .  S
N1087      C1088   1.356       .  A
N1087      C1402   1.441       .  S
C1088      H1089   1.078       .  S
C1090      N1091   1.358       .  A
C1090      H1100   1.082       .  S
N1091      C1092   1.356       .  A
N1091      C1437   1.436       .  S
C1092      H1098   1.082       .  S
C1093      N1094   1.354       .  A
C1093      H1095   1.076       .  S
N1094      C1096   1.349       .  A
N1094      C1357   1.439       .  S
C1096      H1097   1.080       .  S
O1101      C1117   1.272       .  A
O1101     Zn1107   1.990   1_655  S
C1102      O1622   1.276   1_645  A
C1102      O1115   1.273       .  A
O1103      C1116   1.272       .  A
O1103     Cd1614   2.057       .  S
O1104      C1122   1.271       .  A
O1105      C1119   1.273       .  A
O1105     Cd1109   2.063       .  S
O1106      C1117   1.273       .  A
O1106     Cd1613   2.049       .  S
Zn1107     O1118   2.043       .  S
Zn1107     O1616   1.935   1_455  S
O1108      C1119   1.271       .  A
O1108     Cd1113   2.047       .  S
Cd1109     O1610   2.050   1_545  S
Cd1109     O1111   2.081       .  S
Cd1109     O1112   1.991       .  S
Cd1110     O1607   2.048   1_545  S
Cd1110     O1114   2.068       .  S
Cd1110     O1123   2.043       .  S
O1111      C1121   1.274       .  A
O1112     Zn1611   1.941   1_645  S
O1112     Cd1113   1.989       .  S
Cd1113     O1115   2.074       .  S
C1116      O1120   1.277       .  A
C1116      C1306   1.484       .  S
C1117      C1338   1.461       .  S
O1118      C1606   1.275   1_455  A
C1119      C1322   1.461       .  S
C1121      C1274   1.507       .  S
C1122      O1123   1.273       .  A
C1122      C1290   1.467       .  S
C1124      C1126   1.519       .  S
C1124      C1128   1.532       .  S
C1124      C1127   1.555       .  S
C1124      C1309   1.530       .  S
C1125      C1129   1.526       .  S
C1125      C1131   1.543       .  S
C1125      C1130   1.538       .  S
C1125      C1325   1.532       .  S
C1126      C1134   1.369       .  A
C1126      C1129   1.386       .  A
C1127      C1138   1.387       .  A
C1127      C1130   1.398       .  A
C1128      C1142   1.374       .  A
C1128      C1131   1.408       .  A
C1129      C1132   1.376       .  A
C1130      C1136   1.374       .  A
C1131      C1139   1.380       .  A
C1132      N1133   1.353       .  A
C1132      H1145   1.082       .  S
N1133      C1134   1.350       .  A
N1133      C1341   1.421       .  S
C1134      H1135   1.083       .  S
C1136      N1137   1.353       .  A
C1136      H1146   1.082       .  S
N1137      C1138   1.360       .  A
N1137      C1258   1.438       .  S
C1138      H1144   1.081       .  S
C1139      N1140   1.347       .  A
C1139      H1141   1.083       .  S
N1140      C1142   1.344       .  A
N1140      C1293   1.419       .  S
C1142      H1143   1.083       .  S
C1147      C1149   1.521   1_545  S
C1147      C1150   1.546       .  S
C1147      C1226   1.531       .  S
C1148      C1658   1.548       .  S
C1148      C1657   1.543       .  S
C1148      C1210   1.535       .  S
C1149      C1661   1.373       .  A
C1149      C1656   1.378       .  A
C1150      C1161   1.380       .  A
C1151      C1165   1.383       .  A
C1151      C1154   1.416       .  A
C1152      C1653   1.380       .  A
C1152      C1155   1.371       .  A
C1153      C1652   1.547   1_545  S
C1153      C1663   1.381       .  A
C1154      C1652   1.547   1_545  S
C1154      C1162   1.382       .  A
C1155      N1156   1.353       .  A
C1155      H1168   1.082       .  S
N1156      C1157   1.356       .  A
N1156      C1242   1.428       .  S
C1157      C1653   1.376       .  A
C1157      H1662   1.082       .  S
H1158      C1661   1.082       .  S
C1159      C1657   1.380       .  A
C1159      H1169   1.082       .  S
N1160      C1161   1.359   1_455  A
N1160      C1277   1.444       .  S
C1161      H1167   1.081       .  S
C1162      N1163   1.345       .  A
C1162      H1164   1.083       .  S
N1163      C1165   1.343       .  A
N1163      C1197   1.424       .  S
C1165      H1166   1.083       .  S
O1170      C1186   1.271       .  A
O1170     Zn1176   1.992       .  S
C1171      O1187   1.272       .  A
C1171      O1184   1.273       .  A
C1171      C1229   1.461       .  S
O1172      C1185   1.272       .  A
O1172     Cd1179   2.067       .  S
O1173      C1191   1.274       .  A
O1173     Cd1182   2.063       .  S
O1174      C1188   1.277       .  A
O1174     Cd1178   2.078       .  S
O1175      C1186   1.275       .  A
O1175     Cd1178   2.062       .  S
Zn1176     O1187   2.004       .  S
Zn1176     O1189   2.017       .  S
Zn1176     O1181   1.929       .  S
O1177      C1188   1.273       .  A
O1177     Cd1182   2.071       .  S
Cd1178     O1180   2.065       .  S
Cd1178     O1181   1.996       .  S
Cd1179     O1183   2.042       .  S
Cd1179     O1192   2.041       .  S
Cd1179     O1181   1.981       .  S
O1180      C1190   1.274       .  A
O1181     Cd1182   1.984       .  S
Cd1182     O1184   2.057       .  S
O1183      C1190   1.270       .  A
C1185      O1189   1.273       .  A
C1186      C1194   1.469       .  S
C1188      C1261   1.499       .  S
C1190      C1213   1.490       .  S
C1191      O1192   1.272       .  A
C1191      C1245   1.480       .  S
C1193      C1194   1.401       .  A
C1193      C1198   1.396       .  A
C1193      H1200   1.084       .  S
C1194      C1195   1.418       .  A
C1195      C1202   1.508       .  S
C1195      C1196   1.401       .  A
C1196      C1197   1.396       .  A
C1196      H1201   1.084       .  S
C1197      C1198   1.408       .  A
C1198      C1199   1.506       .  S
C1199      H1203   1.110       .  S
C1199      H1204   1.110       .  S
C1199      H1205   1.109       .  S
C1202      H1206   1.111       .  S
C1202      H1207   1.109       .  S
C1202      H1208   1.111       .  S
C1209      C1210   1.409       .  A
C1209      C1214   1.395       .  A
C1209      H1216   1.077       .  S
C1210      C1211   1.425       .  A
C1211      C1218   1.511       .  S
C1211      C1212   1.404       .  A
C1212      C1213   1.407       .  A
C1212      H1217   1.084       .  S
C1213      C1214   1.417       .  A
C1214      C1215   1.513       .  S
C1215      H1219   1.111       .  S
C1215      H1220   1.110       .  S
C1215      H1221   1.110       .  S
C1218      H1222   1.110       .  S
C1218      H1224   1.111       .  S
C1225      C1226   1.412       .  A
C1225      C1230   1.395       .  A
C1225      H1232   1.081       .  S
C1226      C1227   1.425       .  A
C1227      C1234   1.510       .  S
C1227      C1228   1.403       .  A
C1228      C1229   1.398       .  A
C1228      H1233   1.085       .  S
C1229      C1230   1.404       .  A
C1230      C1231   1.509       .  S
C1231      H1235   1.111       .  S
C1231      H1236   1.110       .  S
C1231      H1237   1.110       .  S
C1234      H1238   1.104       .  S
C1234      H1239   1.110       .  S
C1234      H1240   1.111       .  S
C1241      C1242   1.399       .  A
C1241      C1246   1.398       .  A
C1241      H1248   1.084       .  S
C1242      C1243   1.403       .  A
C1243      C1250   1.505       .  S
C1243      C1244   1.400       .  A
C1244      C1245   1.410       .  A
C1244      H1249   1.084       .  S
C1245      C1246   1.418       .  A
C1246      C1247   1.509       .  S
C1247      H1251   1.111       .  S
C1247      H1252   1.110       .  S
C1247      H1253   1.110       .  S
C1250      H1254   1.110       .  S
C1250      H1255   1.110       .  S
C1250      H1256   1.109       .  S
C1257      C1258   1.401       .  A
C1257      C1262   1.406       .  A
C1257      H1264   1.084       .  S
C1258      C1259   1.410       .  A
C1259      C1266   1.505       .  S
C1259      C1260   1.404       .  A
C1260      C1261   1.411       .  A
C1260      H1265   1.084       .  S
C1261      C1262   1.425       .  A
C1262      C1263   1.509       .  S
C1263      H1267   1.111       .  S
C1263      H1268   1.110       .  S
C1263      H1269   1.110       .  S
C1266      H1270   1.105       .  S
C1266      H1271   1.110       .  S
C1266      H1272   1.110       .  S
C1273      C1278   1.407       .  A
C1273      H1280   1.083       .  S
C1274      C1779   1.426       .  A
C1275      C1282   1.508       .  S
C1275      C1778   1.424       .  A
C1275      C1276   1.407       .  A
C1276      C1781   1.399       .  A
C1276      H1281   1.084       .  S
C1277      C1780   1.401   1_455  A
C1278      C1279   1.505       .  S
C1279      H1283   1.111       .  S
C1279      H1284   1.108       .  S
C1282      H1287   1.110       .  S
C1282      H1288   1.111       .  S
C1289      C1290   1.404       .  A
C1289      C1294   1.396       .  A
C1289      H1296   1.084       .  S
C1290      C1291   1.416       .  A
C1291      C1298   1.508       .  S
C1291      C1292   1.398       .  A
C1292      C1293   1.395       .  A
C1292      H1297   1.084       .  S
C1293      C1294   1.404       .  A
C1294      C1295   1.505       .  S
C1295      H1299   1.111       .  S
C1295      H1300   1.110       .  S
C1295      H1301   1.110       .  S
C1298      H1302   1.109       .  S
C1298      H1303   1.110       .  S
C1298      H1304   1.105       .  S
C1305      C1306   1.400       .  A
C1305      C1310   1.398       .  A
C1305      H1312   1.085       .  S
C1306      C1307   1.418       .  A
C1307      C1314   1.508       .  S
C1307      C1308   1.404       .  A
C1308      C1309   1.405       .  A
C1308      H1313   1.078       .  S
C1309      C1310   1.426       .  A
C1310      C1311   1.512       .  S
C1311      H1315   1.111       .  S
C1311      H1316   1.110       .  S
C1311      H1317   1.105       .  S
C1314      H1318   1.110       .  S
C1314      H1319   1.110       .  S
C1314      H1320   1.111       .  S
C1321      C1322   1.396       .  A
C1321      C1326   1.401       .  A
C1321      H1328   1.085       .  S
C1322      C1323   1.403       .  A
C1323      C1330   1.508       .  S
C1323      C1324   1.398       .  A
C1324      C1325   1.413       .  A
C1324      H1329   1.081       .  S
C1325      C1326   1.427       .  A
C1326      C1327   1.509       .  S
C1327      H1331   1.110       .  S
C1327      H1332   1.101       .  S
C1327      H1333   1.111       .  S
C1330      H1334   1.110       .  S
C1330      H1335   1.110       .  S
C1330      H1336   1.111       .  S
C1337      C1338   1.400       .  A
C1337      C1342   1.395       .  A
C1337      H1344   1.085       .  S
C1338      C1339   1.414       .  A
C1339      C1346   1.508       .  S
C1339      C1340   1.399       .  A
C1340      C1341   1.396       .  A
C1340      H1345   1.084       .  S
C1341      C1342   1.408       .  A
C1342      C1343   1.505       .  S
C1343      H1347   1.111       .  S
C1343      H1348   1.107       .  S
C1343      H1349   1.110       .  S
C1346      H1350   1.109       .  S
C1346      H1351   1.111       .  S
C1346      H1352   1.111       .  S
C1353      C1354   1.414       .  A
C1353      C1358   1.407       .  A
C1353      H1360   1.084       .  S
C1354      C1355   1.424       .  A
C1355      C1362   1.510       .  S
C1355      C1356   1.401       .  A
C1356      C1357   1.402       .  A
C1356      H1361   1.084       .  S
C1357      C1358   1.406       .  A
C1358      C1359   1.504       .  S
C1359      H1363   1.110       .  S
C1359      H1364   1.108       .  S
C1359      H1365   1.106   1_556  S
C1362      H1366   1.110       .  S
C1362      H1367   1.110       .  S
C1362      H1368   1.111       .  S
C1369      C1370   1.405       .  A
C1369      C1374   1.411       .  A
C1369      H1376   1.084       .  S
C1370      C1371   1.413       .  A
C1371      C1378   1.510       .  S
C1371      C1372   1.396       .  A
C1372      C1373   1.404       .  A
C1372      H1377   1.080       .  S
C1373      C1374   1.422       .  A
C1374      C1375   1.508       .  S
C1375      H1379   1.110       .  S
C1375      H1380   1.110       .  S
C1375      H1381   1.107       .  S
C1378      H1382   1.111       .  S
C1378      H1383   1.109       .  S
C1378      H1384   1.111       .  S
C1385      C1386   1.406       .  A
C1385      C1390   1.405       .  A
C1385      H1392   1.085       .  S
C1386      C1387   1.412       .  A
C1387      C1394   1.509       .  S
C1387      C1388   1.404       .  A
C1388      C1389   1.405       .  A
C1388      H1393   1.070       .  S
C1389      C1390   1.425       .  A
C1390      C1391   1.510       .  S
C1391      H1395   1.109       .  S
C1391      H1396   1.110       .  S
C1391      H1397   1.104       .  S
C1394      H1398   1.110       .  S
C1394      H1399   1.109       .  S
C1394      H1400   1.111       .  S
C1401      C1402   1.400       .  A
C1401      C1406   1.401       .  A
C1401      H1408   1.082       .  S
C1402      C1403   1.410       .  A
C1403      C1410   1.505       .  S
C1403      C1404   1.409       .  A
C1404      C1405   1.413       .  A
C1404      H1409   1.084       .  S
C1405      C1406   1.425       .  A
C1406      C1407   1.511       .  S
C1407      H1411   1.111       .  S
C1407      H1412   1.111       .  S
C1407      H1413   1.110       .  S
C1410      H1414   1.109       .  S
C1410      H1415   1.111   1_556  S
C1410      H1416   1.110       .  S
C1417      C1422   1.405       .  A
C1417      H1424   1.084       .  S
C1418      C1419   1.406       .  A
C1419      C1426   1.504       .  S
C1419      C1420   1.406       .  A
C1420      C1421   1.409       .  A
C1420      H1425   1.084       .  S
C1422      C1423   1.508       .  S
C1423      H1427   1.111       .  S
C1423      H1428   1.110       .  S
C1426      H1431   1.110       .  S
C1426      H1432   1.111       .  S
C1433      C1434   1.405       .  A
C1433      C1438   1.405       .  A
C1433      H1440   1.084       .  S
C1434      C1435   1.417       .  A
C1435      C1442   1.507       .  S
C1435      C1436   1.407       .  A
C1436      C1437   1.401       .  A
C1436      H1441   1.084       .  S
C1437      C1438   1.408       .  A
C1438      C1439   1.505       .  S
C1439      H1443   1.111       .  S
C1439      H1444   1.110       .  S
C1439      H1445   1.110       .  S
C1442      H1446   1.111       .  S
C1442      H1447   1.109       .  S
C1442      H1448   1.111       .  S
C1449      C1450   1.400       .  A
C1449      C1454   1.406       .  A
C1449      H1456   1.085       .  S
C1450      C1451   1.407       .  A
C1451      C1458   1.508       .  S
C1451      C1452   1.400       .  A
C1452      C1453   1.406       .  A
C1452      H1457   1.073       .  S
C1453      C1454   1.427       .  A
C1454      C1455   1.510       .  S
C1455      H1459   1.110       .  S
C1455      H1964   1.105       .  S
C1455      H1461   1.110       .  S
C1458      H1462   1.109       .  S
C1458      H1463   1.111       .  S
C1458      H1464   1.111       .  S
H1460      C1959   1.106       .  S
C1465      C1466   1.405       .  A
C1465      C1470   1.400       .  A
C1465      H1472   1.076       .  S
C1466      C1467   1.425       .  A
C1467      C1474   1.510       .  S
C1467      C1468   1.407       .  A
C1468      C1469   1.402       .  A
C1468      H1473   1.085       .  S
C1469      C1470   1.412       .  A
C1470      C1471   1.509       .  S
C1471      H1475   1.111       .  S
C1471      H1476   1.109       .  S
C1471      H1477   1.110       .  S
C1474      H1478   1.110       .  S
C1474      H1983   1.106       .  S
C1474      H1480   1.110       .  S
H1479      C1978   1.107       .  S
C1481      C1482   1.414       .  A
C1481      C1486   1.411       .  A
C1481      H1488   1.083       .  S
C1482      C1483   1.423       .  A
C1483      C1490   1.511       .  S
C1483      C1484   1.399       .  A
C1484      C1485   1.404       .  A
C1484      H1489   1.084       .  S
C1485      C1486   1.410       .  A
C1486      C1487   1.505       .  S
C1487      H1491   1.110       .  S
C1487      H1492   1.110       .  S
C1487      H1493   1.107       .  S
C1490      H1494   1.110       .  S
C1490      H1495   1.110       .  S
C1490      H1496   1.111       .  S
C1497      C1498   1.403       .  A
C1497      C1502   1.398       .  A
C1497      H1504   1.084       .  S
C1498      C1499   1.408       .  A
C1499      C1506   1.505       .  S
C1499      C1500   1.407       .  A
C1500      C1501   1.414       .  A
C1500      H1505   1.084       .  S
C1501      C1502   1.422       .  A
C1502      C1503   1.511       .  S
C1503      H1507   1.111       .  S
C1503      H1508   1.110       .  S
C1503      H1509   1.110       .  S
C1506      H1510   1.109       .  S
C1506      H1511   1.110       .  S
C1506      H1512   1.111       .  S
O1513      C1529   1.278       .  A
O1513     Zn1519   2.046       .  S
C1514      O1530   1.273       .  A
C1514      O1527   1.275       .  A
C1514      C1986   1.474       .  S
O1515      C1528   1.279       .  A
O1515     Cd1522   2.083       .  S
O1516      C1534   1.275       .  A
O1516     Cd1525   2.067       .  S
O1517      C1531   1.273       .  A
O1517     Cd1521   2.064       .  S
O1518      C1529   1.272       .  A
O1518     Cd1521   2.053       .  S
Zn1519     O1530   2.023       .  S
Zn1519     O1532   2.033       .  S
Zn1519     O1524   1.948       .  S
O1520      C1531   1.277       .  A
O1520     Cd1525   2.081       .  S
Cd1521     O1523   2.072       .  S
Cd1521     O1524   1.986       .  S
Cd1522     O1526   2.080       .  S
Cd1522     O1535   2.091       .  S
Cd1522     O1524   2.001       .  S
O1523      C1533   1.275       .  A
O1524     Cd1525   1.996       .  S
Cd1525     O1527   2.077       .  S
O1526      C1533   1.275       .  A
C1528      O1532   1.278       .  A
C1528      C1689   1.475       .  S
C1529      C1973   1.482       .  S
C1531      C1938   1.498       .  S
C1533      C2005   1.492       .  S
C1534      O1535   1.279       .  A
C1534      C1954   1.480       .  S
C1536      C1539   1.535       .  S
C1536      C1970   1.544       .  S
C1537      C1542   1.530       .  S
C1537      C1957   1.544       .  S
C1538      C1546   1.389       .  A
C1538      C1541   1.398       .  A
C1539      C1550   1.381       .  A
C1540      C1554   1.381       .  A
C1540      C1543   1.401       .  A
C1541      C1544   1.379       .  A
C1542      C1548   1.377       .  A
C1543      C1551   1.383       .  A
C1544      N1545   1.354       .  A
C1544      H1557   1.080       .  S
N1545      C1546   1.355       .  A
N1545      C1989   1.440       .  S
C1546      H1547   1.077       .  S
C1548      H1558   1.082       .  S
N1549      C1922   1.437       .  S
C1550      H1556   1.082       .  S
C1551      N1552   1.354       .  A
C1551      H1553   1.078       .  S
N1552      C1554   1.353       .  A
N1552      C2002   1.437       .  S
C1554      H1555   1.078       .  S
O1559      C1575   1.276       .  A
O1559     Zn1565   2.028       .  S
C1560      O1576   1.278       .  A
C1560      O1573   1.272       .  A
C1560      C1874   1.477       .  S
O1561     Cd1568   2.094       .  S
O1562      C1580   1.276       .  A
O1563      C1577   1.275       .  A
O1563     Cd1567   2.072       .  S
O1564      C1575   1.272       .  A
O1564     Cd1567   2.055       .  S
Zn1565     O1578   2.047       .  S
Zn1565     O1570   1.949       .  S
O1566     Cd1571   2.071       .  S
Cd1567     O1570   1.989       .  S
Cd1568     O1572   2.096       .  S
O1569      C1579   1.273       .  A
Cd1571     O1573   2.047       .  S
O1572      C1579   1.280       .  A
C1574      O1578   1.279   1_554  A
C1575      C1858   1.495       .  S
C1577      C1925   1.501       .  S
C1579      C1890   1.483       .  S
C1580      O1581   1.277       .  A
C1580      C1909   1.500       .  S
C1582      C1584   1.548       .  S
C1582      C1586   1.554       .  S
C1582      C1585   1.527       .  S
C1582      C1877   1.542       .  S
C1583      C1587   1.550       .  S
C1583      C1589   1.558       .  S
C1583      C1588   1.533       .  S
C1583      C1893   1.545       .  S
C1584      C1592   1.385       .  A
C1584      C1587   1.398       .  A
C1585      C1596   1.373       .  A
C1585      C1588   1.386       .  A
C1586      C1600   1.383       .  A
C1586      C1589   1.401       .  A
C1587      C1590   1.380       .  A
C1588      C1594   1.379       .  A
C1589      C1597   1.390       .  A
C1590      N1591   1.356       .  A
C1590      H1603   1.079       .  S
N1591      C1592   1.358       .  A
N1591      C1906   1.442       .  S
C1592      H1593   1.078       .  S
C1594      N1595   1.359       .  A
C1594      H1604   1.082       .  S
N1595      C1596   1.356       .  A
N1595      C1941   1.437       .  S
C1596      H1602   1.082       .  S
C1597      N1598   1.353       .  A
C1597      H1599   1.076       .  S
N1598      C1600   1.352       .  A
N1598      C1861   1.441       .  S
C1600      H1601   1.079       .  S
O1605      C1621   1.273       .  A
O1605     Zn1611   1.997   1_655  S
C1606      O1619   1.274       .  A
O1607      C1620   1.271       .  A
O1608      C1626   1.272       .  A
O1609      C1623   1.273       .  A
O1609     Cd1613   2.061       .  S
O1610      C1621   1.274       .  A
Zn1611     O1622   2.050       .  S
O1612      C1623   1.273       .  A
O1612     Cd1617   2.056       .  S
Cd1613     O1615   2.075       .  S
Cd1613     O1616   1.991       .  S
Cd1614     O1618   2.087       .  S
Cd1614     O1627   2.052       .  S
O1615      C1625   1.273       .  A
O1616     Cd1617   1.990       .  S
Cd1617     O1619   2.080       .  S
C1620      O1624   1.274       .  A
C1620      C1810   1.470       .  S
C1621      C1842   1.467       .  S
C1623      C1826   1.462       .  S
C1625      C1778   1.497       .  S
C1626      O1627   1.274       .  A
C1626      C1794   1.463       .  S
C1628      C1630   1.518       .  S
C1628      C1632   1.530       .  S
C1628      C1631   1.559       .  S
C1628      C1813   1.532       .  S
C1629      C1633   1.523       .  S
C1629      C1635   1.546       .  S
C1629      C1634   1.539       .  S
C1629      C1829   1.532       .  S
C1630      C1638   1.369       .  A
C1630      C1633   1.381       .  A
C1631      C1642   1.387       .  A
C1631      C1634   1.401       .  A
C1632      C1646   1.374       .  A
C1632      C1635   1.411       .  A
C1633      C1636   1.374       .  A
C1634      C1640   1.376       .  A
C1635      C1643   1.383       .  A
C1636      N1637   1.353       .  A
C1636      H1649   1.082       .  S
N1637      C1638   1.351       .  A
N1637      C1845   1.421       .  S
C1638      H1639   1.083       .  S
C1640      N1641   1.352       .  A
C1640      H1650   1.081       .  S
N1641      C1642   1.356       .  A
N1641      C1762   1.434       .  S
C1642      H1648   1.079       .  S
C1643      N1644   1.347       .  A
C1643      H1645   1.083       .  S
N1644      C1646   1.343       .  A
N1644      C1797   1.421       .  S
C1646      H1647   1.083       .  S
C1651      C1653   1.525       .  S
C1651      C1654   1.544       .  S
C1651      C1730   1.530       .  S
C1652      C1714   1.534       .  S
C1654      C1665   1.379       .  A
C1655      C1669   1.382       .  A
C1655      C1658   1.415       .  A
C1656      C1659   1.374       .  A
C1658      C1666   1.384       .  A
C1659      N1660   1.353       .  A
C1659      H1672   1.082       .  S
N1660      C1661   1.355       .  A
N1660      C1746   1.427       .  S
C1663      H1673   1.081   1_545  S
N1664      C1665   1.356       .  A
N1664      C1781   1.437       .  S
C1665      H1671   1.081       .  S
C1666      N1667   1.344       .  A
C1666      H1668   1.083       .  S
N1667      C1669   1.343       .  A
N1667      C1701   1.423       .  S
C1669      H1670   1.083       .  S
O1674      C1690   1.271       .  A
O1674     Zn1680   1.986       .  S
C1675      O1691   1.271       .  A
C1675      O1688   1.271       .  A
C1675      C1733   1.460       .  S
O1676      C1689   1.274       .  A
O1676     Cd1683   2.079       .  S
O1677      C1695   1.273       .  A
O1677     Cd1686   2.057       .  S
O1678      C1692   1.275       .  A
O1678     Cd1682   2.072       .  S
O1679      C1690   1.273       .  A
O1679     Cd1682   2.054       .  S
Zn1680     O1691   1.998       .  S
Zn1680     O1693   2.026       .  S
Zn1680     O1685   1.931       .  S
O1681      C1692   1.273       .  A
O1681     Cd1686   2.069       .  S
Cd1682     O1684   2.059       .  S
Cd1682     O1685   1.997       .  S
Cd1683     O1687   2.056       .  S
Cd1683     O1696   2.047       .  S
Cd1683     O1685   1.988       .  S
O1684      C1694   1.274       .  A
O1685     Cd1686   1.989       .  S
Cd1686     O1688   2.054       .  S
O1687      C1694   1.272       .  A
C1689      O1693   1.274       .  A
C1690      C1698   1.470       .  S
C1692      C1765   1.491       .  S
C1694      C1717   1.486       .  S
C1695      O1696   1.273       .  A
C1695      C1749   1.481       .  S
C1697      C1698   1.404       .  A
C1697      C1702   1.398       .  A
C1697      H1704   1.084       .  S
C1698      C1699   1.417       .  A
C1699      C1706   1.508       .  S
C1699      C1700   1.399       .  A
C1700      C1701   1.396       .  A
C1700      H1705   1.084       .  S
C1701      C1702   1.406       .  A
C1702      C1703   1.504       .  S
C1703      H1707   1.110       .  S
C1703      H1708   1.110       .  S
C1703      H1709   1.110       .  S
C1706      H1710   1.110       .  S
C1706      H1711   1.110       .  S
C1706      H1712   1.105       .  S
C1713      C1714   1.411       .  A
C1713      C1718   1.398       .  A
C1713      H1720   1.079       .  S
C1714      C1715   1.424       .  A
C1715      C1722   1.511       .  S
C1715      C1716   1.402       .  A
C1716      C1717   1.405       .  A
C1716      H1721   1.084       .  S
C1717      C1718   1.414       .  A
C1718      C1719   1.511       .  S
C1719      H1723   1.111       .  S
C1719      H1724   1.110       .  S
C1719      H1725   1.111       .  S
C1722      H1726   1.110       .  S
C1722      H1728   1.111       .  S
C1729      C1730   1.412       .  A
C1729      C1734   1.395       .  A
C1729      H1736   1.081       .  S
C1730      C1731   1.425       .  A
C1731      C1738   1.509       .  S
C1731      C1732   1.403       .  A
C1732      C1733   1.397       .  A
C1732      H1737   1.085       .  S
C1733      C1734   1.403       .  A
C1734      C1735   1.509       .  S
C1735      H1739   1.111       .  S
C1735      H1740   1.110       .  S
C1735      H1741   1.110       .  S
C1738      H1742   1.104       .  S
C1738      H1743   1.110       .  S
C1738      H1744   1.111       .  S
C1745      C1746   1.399       .  A
C1745      C1750   1.400       .  A
C1745      H1752   1.084       .  S
C1746      C1747   1.403       .  A
C1747      C1754   1.505       .  S
C1747      C1748   1.398       .  A
C1748      C1749   1.409       .  A
C1748      H1753   1.084       .  S
C1749      C1750   1.420       .  A
C1750      C1751   1.509       .  S
C1751      H1755   1.111       .  S
C1751      H1756   1.111       .  S
C1751      H1757   1.110       .  S
C1754      H1758   1.110       .  S
C1754      H1759   1.111       .  S
C1754      H1760   1.109       .  S
C1761      C1762   1.399       .  A
C1761      C1766   1.404       .  A
C1761      H1768   1.084       .  S
C1762      C1763   1.405       .  A
C1763      C1770   1.504       .  S
C1763      C1764   1.405       .  A
C1764      C1765   1.410       .  A
C1764      H1769   1.084       .  S
C1765      C1766   1.422       .  A
C1766      C1767   1.509       .  S
C1767      H1771   1.111       .  S
C1767      H1772   1.109       .  S
C1767      H1773   1.111       .  S
C1770      H1774   1.110       .  S
C1770      H1775   1.110       .  S
C1770      H1776   1.111       .  S
C1777      C1782   1.407       .  A
C1777      H1784   1.084       .  S
C1779      C1786   1.509       .  S
C1779      C1780   1.408       .  A
C1780      H1785   1.084       .  S
C1782      C1783   1.502       .  S
C1783      H1787   1.111       .  S
C1783      H1788   1.110       .  S
C1786      H1791   1.110       .  S
C1786      H1792   1.111       .  S
C1793      C1794   1.402       .  A
C1793      C1798   1.396       .  A
C1793      H1800   1.084       .  S
C1794      C1795   1.415       .  A
C1795      C1802   1.508       .  S
C1795      C1796   1.399       .  A
C1796      C1797   1.396       .  A
C1796      H1801   1.084       .  S
C1797      C1798   1.407       .  A
C1798      C1799   1.507       .  S
C1799      H1803   1.111       .  S
C1799      H1804   1.109       .  S
C1799      H1805   1.110       .  S
C1802      H1806   1.110       .  S
C1802      H1807   1.110       .  S
C1802      H1808   1.110       .  S
C1809      C1810   1.396       .  A
C1809      C1814   1.399       .  A
C1809      H1816   1.085       .  S
C1810      C1811   1.410       .  A
C1811      C1818   1.509       .  S
C1811      C1812   1.400       .  A
C1812      C1813   1.406       .  A
C1812      H1817   1.072       .  S
C1813      C1814   1.431       .  A
C1814      C1815   1.515       .  S
C1815      H1819   1.111       .  S
C1815      H1820   1.105       .  S
C1815      H1821   1.107       .  S
C1818      H1822   1.111       .  S
C1818      H1823   1.109       .  S
C1818      H1824   1.111       .  S
C1825      C1826   1.397       .  A
C1825      C1830   1.402       .  A
C1825      H1832   1.085       .  S
C1826      C1827   1.403       .  A
C1827      C1834   1.508       .  S
C1827      C1828   1.397       .  A
C1828      C1829   1.413       .  A
C1828      H1833   1.080       .  S
C1829      C1830   1.427       .  A
C1830      C1831   1.511       .  S
C1831      H1835   1.110       .  S
C1831      H1836   1.103       .  S
C1831      H1837   1.111       .  S
C1834      H1838   1.110       .  S
C1834      H1839   1.110       .  S
C1834      H1840   1.111       .  S
C1841      C1842   1.403       .  A
C1841      C1846   1.395       .  A
C1841      H1848   1.084       .  S
C1842      C1843   1.417       .  A
C1843      C1850   1.508       .  S
C1843      C1844   1.400       .  A
C1844      C1845   1.396       .  A
C1844      H1849   1.084       .  S
C1845      C1846   1.407       .  A
C1846      C1847   1.507       .  S
C1847      H1851   1.111       .  S
C1847      H1852   1.110       .  S
C1847      H1853   1.110       .  S
C1850      H1854   1.109       .  S
C1850      H1855   1.111       .  S
C1850      H1856   1.110       .  S
C1857      C1858   1.412       .  A
C1857      C1862   1.405       .  A
C1857      H1864   1.084       .  S
C1858      C1859   1.423       .  A
C1859      C1866   1.511       .  S
C1859      C1860   1.401       .  A
C1860      C1861   1.404       .  A
C1860      H1865   1.084       .  S
C1861      C1862   1.410       .  A
C1862      C1863   1.505       .  S
C1863      H1867   1.110       .  S
C1863      H1868   1.108       .  S
C1863      H1869   1.109   1_556  S
C1866      H1870   1.110       .  S
C1866      H1871   1.110       .  S
C1866      H1872   1.111       .  S
C1873      C1874   1.403       .  A
C1873      C1878   1.408       .  A
C1873      H1880   1.084       .  S
C1874      C1875   1.411       .  A
C1875      C1882   1.510       .  S
C1875      C1876   1.399       .  A
C1876      C1877   1.407       .  A
C1876      H1881   1.078       .  S
C1877      C1878   1.423       .  A
C1878      C1879   1.509       .  S
C1879      H1883   1.109       .  S
C1879      H1884   1.111       .  S
C1879      H1885   1.106       .  S
C1882      H1886   1.110       .  S
C1882      H1887   1.109       .  S
C1882      H1888   1.111       .  S
C1889      C1890   1.405       .  A
C1889      C1894   1.405       .  A
C1889      H1896   1.084       .  S
C1890      C1891   1.411       .  A
C1891      C1898   1.508       .  S
C1891      C1892   1.403       .  A
C1892      C1893   1.406       .  A
C1892      H1897   1.072       .  S
C1893      C1894   1.424       .  A
C1894      C1895   1.510       .  S
C1895      H1899   1.110       .  S
C1895      H1900   1.110       .  S
C1895      H1901   1.105       .  S
C1898      H1902   1.111       .  S
C1898      H1903   1.109       .  S
C1898      H1904   1.111       .  S
C1905      C1906   1.402       .  A
C1905      C1910   1.405       .  A
C1905      H1912   1.084       .  S
C1906      C1907   1.409       .  A
C1907      C1914   1.504       .  S
C1907      C1908   1.410       .  A
C1908      C1909   1.413       .  A
C1908      H1913   1.084       .  S
C1909      C1910   1.422       .  A
C1910      C1911   1.509       .  S
C1911      H1915   1.111       .  S
C1911      H1916   1.111       .  S
C1911      H1917   1.110       .  S
C1914      H1918   1.109       .  S
C1914      H1919   1.110   1_556  S
C1914      H1920   1.110       .  S
C1921      C1926   1.408       .  A
C1921      H1928   1.084       .  S
C1922      C1923   1.407       .  A
C1923      C1930   1.506       .  S
C1923      C1924   1.406       .  A
C1924      C1925   1.413       .  A
C1924      H1929   1.083       .  S
C1926      C1927   1.508       .  S
C1927      H1931   1.111       .  S
C1927      H1932   1.110       .  S
C1930      H1935   1.109       .  S
C1930      H1936   1.111       .  S
C1937      C1938   1.409       .  A
C1937      C1942   1.403       .  A
C1937      H1944   1.083       .  S
C1938      C1939   1.426       .  A
C1939      C1946   1.509       .  S
C1939      C1940   1.406       .  A
C1940      C1941   1.398       .  A
C1940      H1945   1.084       .  S
C1941      C1942   1.410       .  A
C1942      C1943   1.508       .  S
C1943      H1947   1.111       .  S
C1943      H1948   1.108       .  S
C1943      H1949   1.111       .  S
C1946      H1950   1.110       .  S
C1946      H1951   1.110       .  S
C1946      H1952   1.111       .  S
C1953      C1954   1.402       .  A
C1953      C1958   1.407       .  A
C1953      H1960   1.085       .  S
C1954      C1955   1.411       .  A
C1955      C1962   1.507       .  S
C1955      C1956   1.403       .  A
C1956      C1957   1.407       .  A
C1956      H1961   1.076       .  S
C1957      C1958   1.424       .  A
C1958      C1959   1.509       .  S
C1959      H1963   1.110       .  S
C1959      H1965   1.110       .  S
C1962      H1966   1.109       .  S
C1962      H1967   1.110       .  S
C1962      H1968   1.111       .  S
C1969      C1970   1.406       .  A
C1969      C1974   1.401       .  A
C1969      H1976   1.078       .  S
C1970      C1971   1.422       .  A
C1971      C1978   1.508       .  S
C1971      C1972   1.409       .  A
C1972      C1973   1.405       .  A
C1972      H1977   1.085       .  S
C1973      C1974   1.413       .  A
C1974      C1975   1.509       .  S
C1975      H1979   1.111       .  S
C1975      H1980   1.109       .  S
C1975      H1981   1.110       .  S
C1978      H1982   1.110       .  S
C1978      H1984   1.110       .  S
C1985      C1986   1.404       .  A
C1985      C1990   1.409       .  A
C1985      H1992   1.084       .  S
C1986      C1987   1.409       .  A
C1987      C1994   1.507       .  S
C1987      C1988   1.401       .  A
C1988      C1989   1.404       .  A
C1988      H1993   1.083       .  S
C1989      C1990   1.412       .  A
C1990      C1991   1.504       .  S
C1991      H1995   1.111       .  S
C1991      H1996   1.108       .  S
C1991      H1997   1.110       .  S
C1994      H1998   1.110       .  S
C1994      H1999   1.111       .  S
C1994      H2000   1.111       .  S
C2001      C2002   1.402       .  A
C2001      C2006   1.401       .  A
C2001      H2008   1.084       .  S
C2002      C2003   1.405       .  A
C2003      C2010   1.504       .  S
C2003      C2004   1.408       .  A
C2004      C2005   1.413       .  A
C2004      H2009   1.084       .  S
C2005      C2006   1.419       .  A
C2006      C2007   1.510       .  S
C2007      H2011   1.111       .  S
C2007      H2012   1.109       .  S
C2007      H2013   1.111       .  S
C2010      H2014   1.109       .  S
C2010      H2015   1.110       .  S
C2010      H2016   1.105       .  S
