geometry optimzed in LAMMPS
_audit_creation_date              2020-11-30 
_audit_creation_method            'lammps2cif' 
_symmetry_space_group_name_H-M    'P1' 
_symmetry_Int_Tables_number       1 
_symmetry_cell_setting            triclinic 
loop_ 
_symmetry_equiv_pos_as_xyz 
  x,y,z 
_cell_length_a                    27.78041079 
_cell_length_b                    35.74136316102826 
_cell_length_c                    37.973648530264235 
_cell_angle_alpha                 91.96781849715394 
_cell_angle_beta                  89.24597021926833 
_cell_angle_gamma                 91.29599788214941 
loop_ 
_atom_site_label 
_atom_site_type_symbol 
_atom_site_fract_x 
_atom_site_fract_y 
_atom_site_fract_z 
_atom_site_charge 
O1          O  0.55071864  0.46749685  0.01318176    -0.74400
O2          O  0.44249123  0.53213346  0.02030216    -0.74500
O3          O  0.45444486  0.45616060  0.01846542    -0.74500
O4          O  0.53784781  0.54265545  0.01593203    -0.74600
O5          O  0.54245693  0.55197976  0.45556197    -0.74500
O6          O  0.45472346  0.46631738  0.45345573    -0.74500
O7          O  0.44565716  0.54322794  0.45457261    -0.74400
O8          O  0.55210158  0.47549382  0.45418889    -0.74500
Ni9        Ni  0.49645620  0.49946466  0.01896393     1.25400
Ni10       Ni  0.49870002  0.50911098  0.45225581     1.25400
C11         C  0.56903562  0.46572074  0.48370711     0.87800
C12         C  0.42478917  0.54458639  0.99208291     0.87700
C13         C  0.44152692  0.45200614  0.48272226     0.87700
C14         C  0.54910211  0.55716617  0.98652800     0.87900
O15         O  0.05990258  0.95322919  0.06135878    -0.74400
O16         O  0.95582401  0.02266308  0.06584340    -0.74500
O17         O  0.96332620  0.94626215  0.06241744    -0.74500
O18         O  0.05283913  0.03037313  0.06426346    -0.74600
O19         O  0.05307757  0.04193618  0.49824305    -0.74500
O20         O  0.96736380  0.95732579  0.49967814    -0.74500
O21         O  0.95673281  0.03210867  0.50174873    -0.74400
O22         O  0.06356245  0.96633403  0.49704173    -0.74500
Ni23       Ni  0.00820061  0.98819952  0.06563408     1.25400
Ni24       Ni  0.01027961  0.99947198  0.49714065     1.25400
C25         C  0.07458798  0.94047262  0.03119692     0.87800
C26         C  0.93769744  0.03319775  0.03703974     0.87700
C27         C  0.95067332  0.93140221  0.03258338     0.87700
C28         C  0.06372758  0.04580310  0.03509714     0.87900
O29         O  0.14606942  0.27997402  0.46361980    -0.80900
O30         O  0.28216461  0.20833960  0.07997719    -0.65600
O31         O  0.21791629  0.26879899  0.01590562    -1.12200
C32         C  0.33050330  0.22683372  0.42967484     1.06000
O33         O  0.35515007  0.21948399  0.05703399    -0.78800
O34         O  0.36039979  0.27104393  0.00736706    -0.66400
Ni35       Ni  0.14930502  0.27022359  0.01502074     1.34900
C36         C  0.34031702  0.30824778  0.48824133     0.84700
O37         O  0.21294081  0.25830448  0.08901148    -0.79300
O38         O  0.14601406  0.27955798  0.06481203    -0.89600
C39         C  0.32763141  0.20958684  0.08216271     0.84300
O40         O  0.13626941  0.21800604  0.02037362    -0.67800
O41         O  0.35823363  0.22328845  0.45573257    -0.87100
C42         C  0.15976594  0.19171759  0.03321048     0.85100
C43         C  0.17182039  0.27368227  0.09141358     1.06700
H44         H  0.27053347  0.19320534  0.00219392     0.38500
O45         O  0.28152851  0.21861505  0.00723929    -1.09700
O46         O  0.29914803  0.30200365  0.47453378    -0.66400
Ni47       Ni  0.25384388  0.25985643  0.47253450     1.26300
O48         O  0.20235006  0.19638429  0.04481376    -0.66600
O49         O  0.28777905  0.23874714  0.43271001    -0.78900
C50         C  0.17385684  0.28721239  0.43784436     0.84500
O51         O  0.21924534  0.28775689  0.44002958    -0.66100
Ni52       Ni  0.35045582  0.21787325  0.00676907     1.27400
Ni53       Ni  0.24798157  0.23796633  0.04860130     1.26100
H54         H  0.22895077  0.29421088  0.02095411     0.39100
O55         O  0.70065500  0.32894993  0.02700138    -0.80900
O56         O  0.78299866  0.17130159  0.04569198    -0.65600
O57         O  0.76844215  0.27309051  0.01989317    -1.12200
C58         C  0.67203399  0.23241309  0.43073857     1.06000
O59         O  0.79536344  0.16508012  0.48821581    -0.78800
O60         O  0.78509123  0.21125427  0.43526452    -0.66400
Ni61       Ni  0.75402183  0.31187890  0.05304359     1.34900
C62         C  0.79853138  0.24525214  0.43280663     0.84700
O63         O  0.81894382  0.23652956  0.07194099    -0.79300
O64         O  0.80571659  0.29785108  0.08210347    -0.89600
C65         C  0.79989602  0.14908377  0.02191608     0.84300
O66         O  0.70972907  0.28499082  0.08163805    -0.67800
O67         O  0.68828709  0.20042922  0.43765061    -0.87100
C68         C  0.70062633  0.25074087  0.08706797     0.85100
C69         C  0.82640004  0.26751821  0.08900922     1.06700
H70         H  0.69828996  0.20583775  0.00935591     0.38500
O71         O  0.73008785  0.22236767  0.49927717    -1.09700
O72         O  0.78069125  0.27162872  0.45211668    -0.66400
Ni73       Ni  0.72700367  0.27317184  0.48572376     1.26300
O74         O  0.72210617  0.22422403  0.07022828    -0.66600
O75         O  0.68370428  0.26274986  0.44749998    -0.78900
C76         C  0.69951872  0.33664965  0.99464389     0.84500
O77         O  0.72122956  0.32556020  0.47695471    -0.66100
Ni78       Ni  0.74126837  0.18431935  0.46448373     1.27400
Ni79       Ni  0.77431995  0.22308140  0.03520698     1.26100
H80         H  0.79907966  0.28013615  0.00940426     0.39100
O81         O  0.84607218  0.72937138  0.45470261    -0.80900
O82         O  0.72606619  0.78300872  0.08092667    -0.65600
O83         O  0.77803503  0.71716188  0.00961909    -1.12200
C84         C  0.66749676  0.79170492  0.43098704     1.06000
O85         O  0.65126155  0.77413408  0.06196680    -0.78800
O86         O  0.63503707  0.72696561  0.00656848    -0.66400
Ni87       Ni  0.84624097  0.71057696  0.00553282     1.34900
C88         C  0.65376609  0.71249984  0.48834019     0.84700
O89         O  0.78732136  0.72734534  0.08307050    -0.79300
O90         O  0.85224205  0.70391381  0.05533376    -0.89600
C91         C  0.68095687  0.78537319  0.08538700     0.84300
O92         O  0.86435597  0.76238399  0.01024023    -0.67800
O93         O  0.63993357  0.79430809  0.45795244    -0.87100
C94         C  0.84513073  0.78994145  0.02658072     0.85100
C95         C  0.82765301  0.71109671  0.08320128     1.06700
H96         H  0.73511459  0.79714112  0.00439146     0.38500
O97         O  0.72124397  0.77252621  0.00807906    -1.09700
O98         O  0.69240366  0.71775059  0.47055372    -0.66400
Ni99       Ni  0.74207498  0.75675361  0.46946984     1.26300
O100        O  0.80444830  0.78767102  0.04221156    -0.66600
O101        O  0.71050571  0.78066243  0.43231374    -0.78900
C102        C  0.81655260  0.72307229  0.42991067     0.84500
O103        O  0.77161653  0.72625269  0.43387967    -0.66100
Ni104      Ni  0.65317889  0.77882774  0.01180006     1.27400
Ni105      Ni  0.75383056  0.75024677  0.04598312     1.26100
H106        H  0.76387659  0.69263774  0.01329466     0.39100
O107        O  0.35710317  0.77243057  0.05554340    -0.80900
O108        O  0.21270056  0.71746224  0.43856639    -0.65600
O109        O  0.28436818  0.76680550  0.00484634    -1.12200
C110        C  0.16876688  0.71649313  0.08412644     1.06000
O111        O  0.14515790  0.74201659  0.45932247    -0.78800
O112        O  0.14086242  0.77130159  0.01281885    -0.66400
Ni113      Ni  0.35278957  0.76149902  0.00569321     1.34900
C114        C  0.16642426  0.79686002  0.02783753     0.84700
O115        O  0.28985639  0.76223466  0.43187854    -0.79300
O116        O  0.35686702  0.78748430  0.45651215    -0.89600
C117        C  0.16931155  0.72645891  0.43449234     0.84300
O118        O  0.34657882  0.70942155  0.01392535    -0.67800
O119        O  0.14147775  0.71188057  0.05753312    -0.87100
C120        C  0.33293704  0.69729506  0.48465543     0.85100
C121        C  0.33061037  0.77914242  0.42993630     1.06700
H122        H  0.22399397  0.69200187  0.01232024     0.38500
O123        O  0.21554124  0.71772398  0.00899012    -1.09700
O124        O  0.20660431  0.79076691  0.04209302    -0.66400
Ni125      Ni  0.24817484  0.74812119  0.04406734     1.26300
O126        O  0.28995982  0.70238423  0.47506275    -0.66600
O127        O  0.21183036  0.72880960  0.08228003    -0.78900
C128        C  0.32840120  0.78010730  0.08096397     0.84500
O129        O  0.28311035  0.77695561  0.07851875    -0.66100
Ni130      Ni  0.14665778  0.71840380  0.00750679     1.27400
Ni131      Ni  0.25161984  0.74640837  0.47107874     1.26100
H132        H  0.27757088  0.79289994  0.00152914     0.39100
O133        O  0.05056883  0.25410411  0.23067728    -0.74400
O134        O  0.95281482  0.24265899  0.30182630    -0.74500
O135        O  0.95446968  0.24298693  0.22950640    -0.74500
O136        O  0.04927465  0.25402413  0.30161410    -0.74600
O137        O  0.03884744  0.31578598  0.30382291    -0.74500
O138        O  0.94364535  0.30455831  0.23259654    -0.74500
O139        O  0.94248093  0.30425167  0.30482597    -0.74400
O140        O  0.03951649  0.31576002  0.23197044    -0.74500
Ni141      Ni  0.00189988  0.24624865  0.26589048     1.25400
Ni142      Ni  0.99062540  0.31228553  0.26842927     1.25400
C143        C  0.06075241  0.28665251  0.21926192     0.87800
C144        C  0.93263378  0.27145932  0.31610507     0.87700
C145        C  0.93539861  0.27234553  0.21781526     0.87700
C146        C  0.05958824  0.28673902  0.31453727     0.87900
O147        O  0.04689905  0.66979801  0.22442779    -0.74400
O148        O  0.94713333  0.67095923  0.29466495    -0.74500
O149        O  0.94999728  0.66693185  0.22276055    -0.74500
O150        O  0.04461665  0.67427532  0.29621173    -0.74600
O151        O  0.04161398  0.73645041  0.29477477    -0.74500
O152        O  0.94868701  0.72929910  0.22190878    -0.74500
O153        O  0.94473556  0.73320132  0.29275450    -0.74400
O154        O  0.04592200  0.73219125  0.22369451    -0.74500
Ni155      Ni  0.99720822  0.66820119  0.25960080     1.25400
Ni156      Ni  0.99526993  0.73494188  0.25823327     1.25400
C157        C  0.06210865  0.70079779  0.21204503     0.87800
C158        C  0.92979550  0.70227298  0.30547504     0.87700
C159        C  0.93424250  0.69709584  0.21009450     0.87700
C160        C  0.05801084  0.70690528  0.30798787     0.87900
O161        O  0.45228328  0.77141076  0.28883456    -0.74400
O162        O  0.55223078  0.77564117  0.21906616    -0.74500
O163        O  0.54943727  0.77562793  0.28998027    -0.74500
O164        O  0.45446299  0.77137930  0.21775564    -0.74600
O165        O  0.45242458  0.83379734  0.21920564    -0.74500
O166        O  0.54635398  0.83799010  0.29246053    -0.74500
O167        O  0.54947384  0.83806140  0.22069461    -0.74400
O168        O  0.44958630  0.83378660  0.29094796    -0.74500
Ni169      Ni  0.50217187  0.77130504  0.25377428     1.25400
Ni170      Ni  0.49934144  0.83815363  0.25584951     1.25400
C171        C  0.43533171  0.80189668  0.30201027     0.87800
C172        C  0.56722303  0.80747889  0.20838743     0.87700
C173        C  0.56279106  0.80739919  0.30361243     0.87700
C174        C  0.43814056  0.80188881  0.20637963     0.87900
O175        O  0.55825877  0.19423818  0.21702272    -0.74400
O176        O  0.45856225  0.18402488  0.28807712    -0.74500
O177        O  0.46215263  0.18218108  0.21632944    -0.74500
O178        O  0.55406721  0.19525086  0.28922374    -0.74600
O179        O  0.54401850  0.25701117  0.29064269    -0.74500
O180        O  0.45070818  0.24385317  0.21743958    -0.74500
O181        O  0.44813028  0.24571132  0.28841074    -0.74400
O182        O  0.54709752  0.25575395  0.21827227    -0.74500
Ni183      Ni  0.50877435  0.18675155  0.25257027     1.25400
Ni184      Ni  0.49733861  0.25280891  0.25362542     1.25400
C185        C  0.56799438  0.22676410  0.20506882     0.87800
C186        C  0.43766474  0.21346417  0.30038561     0.87700
C187        C  0.44128981  0.21078512  0.20494722     0.87700
C188        C  0.56193528  0.22772196  0.30343846     0.87900
C189        C  0.33953983  0.76850710  0.14427997    -0.21300
C190        C  0.34951182  0.79076914  0.11523009    -0.09300
C191        C  0.38500057  0.81926484  0.11791404     0.29500
C192        C  0.41154992  0.82433331  0.14878670    -0.21300
C193        C  0.40420273  0.80021250  0.17684849    -0.09400
C194        C  0.36722351  0.77271269  0.17473883     0.29500
F195        F  0.35877270  0.74932179  0.20166735    -0.19900
H196        H  0.31246653  0.74623525  0.14248518     0.17900
H197        H  0.43992020  0.84562866  0.14992795     0.17900
F198        F  0.39509656  0.84125738  0.09021278    -0.19900
C199        C  0.37780549  0.82112318  0.39088930    -0.21300
C200        C  0.34981643  0.78834671  0.39495248    -0.09300
C201        C  0.34494875  0.76258004  0.36635536     0.29500
C202        C  0.37097631  0.76817064  0.33521200    -0.21300
C203        C  0.40112845  0.79993175  0.33184068    -0.09400
C204        C  0.40283034  0.82720553  0.35941694     0.29500
F205        F  0.43166564  0.85822613  0.35711672    -0.19900
H206        H  0.38167517  0.84139849  0.41259588     0.17900
H207        H  0.36905190  0.74692333  0.31420202     0.17900
F208        F  0.31822130  0.73055997  0.36947428    -0.19900
C209        C  0.11554952  0.67851749  0.12269257    -0.21300
C210        C  0.14841751  0.70850757  0.11904563    -0.09300
C211        C  0.15767262  0.73296552  0.14812967     0.29500
C212        C  0.13108138  0.72924740  0.17933004    -0.21300
C213        C  0.09628700  0.70043687  0.18224516    -0.09400
C214        C  0.09012811  0.67410098  0.15423606     0.29500
F215        F  0.05662319  0.64598546  0.15623739    -0.19900
H216        H  0.10832663  0.65925368  0.10064601     0.17900
H217        H  0.13637337  0.74966116  0.20076429     0.17900
F218        F  0.18954554  0.76214275  0.14551537    -0.19900
C219        C  0.14847522  0.68813482  0.37983865    -0.21300
C220        C  0.14612574  0.72180435  0.39991484    -0.09300
C221        C  0.11757477  0.75070898  0.38825735     0.29500
C222        C  0.09068302  0.74567305  0.35780507    -0.21300
C223        C  0.09084206  0.71153452  0.33835991    -0.09400
C224        C  0.12061155  0.68278577  0.34935074     0.29500
F225        F  0.12252549  0.64960974  0.33096423    -0.19900
H226        H  0.17026761  0.66554067  0.38852965     0.17900
H227        H  0.06832629  0.76838337  0.35013077     0.17900
F228        F  0.11517962  0.78390591  0.40664950    -0.19900
C229        C  0.63153408  0.78126092  0.33554409    -0.21300
C230        C  0.59574428  0.80821932  0.33378324    -0.09300
C231        C  0.58813655  0.83291628  0.36284566     0.29500
C232        C  0.61317957  0.82848943  0.39410287    -0.21300
C233        C  0.64728113  0.80026126  0.39645448    -0.09400
C234        C  0.65774829  0.77768042  0.36638714     0.29500
F235        F  0.69064120  0.75025825  0.36761280    -0.19900
H236        H  0.63812374  0.76213737  0.31333781     0.17900
H237        H  0.60484586  0.84637675  0.41687668     0.17900
F238        F  0.55394861  0.85941339  0.36198190    -0.19900
C239        C  0.67259876  0.78055837  0.15020292    -0.21300
C240        C  0.66091485  0.79855633  0.11934740    -0.09300
C241        C  0.62327526  0.82420036  0.12000649     0.29500
C242        C  0.59518642  0.82942689  0.15041506    -0.21300
C243        C  0.60369567  0.80849606  0.18013047    -0.09400
C244        C  0.64371964  0.78512196  0.18042197     0.29500
F245        F  0.65345685  0.76548004  0.20935178    -0.19900
H246        H  0.70152175  0.76071202  0.15003204     0.17900
H247        H  0.56454516  0.84761926  0.14983580     0.17900
F248        F  0.61193370  0.84242680  0.09054067    -0.19900
C249        C  0.86839100  0.68319219  0.39209047    -0.21300
C250        C  0.83672630  0.71308267  0.39520285    -0.09300
C251        C  0.83144272  0.73679489  0.36688530     0.29500
C252        C  0.86026723  0.73202504  0.33668698    -0.21300
C253        C  0.89384600  0.70317817  0.33426554    -0.09400
C254        C  0.89637835  0.67787538  0.36168736     0.29500
F255        F  0.92881531  0.65000828  0.36050318    -0.19900
H256        H  0.87308023  0.66500570  0.41398256     0.17900
H257        H  0.85776353  0.75175601  0.31579348     0.17900
F258        F  0.80166635  0.76638829  0.36967465    -0.19900
C259        C  0.90957087  0.67125070  0.15120456    -0.21300
C260        C  0.90067650  0.69540857  0.18031278    -0.09300
C261        C  0.86345273  0.72126352  0.17867295     0.29500
C262        C  0.83737635  0.72422807  0.14770054    -0.21300
C263        C  0.84873654  0.70215285  0.11752243    -0.09400
C264        C  0.88425105  0.67476126  0.11989166     0.29500
F265        F  0.89577577  0.65227487  0.09164042    -0.19900
H266        H  0.93825203  0.65125686  0.15195237     0.17900
H267        H  0.81024547  0.74545691  0.14672335     0.17900
F268        F  0.85339824  0.74455972  0.20666717    -0.19900
C269        C  0.66287043  0.20818577  0.13243906    -0.21300
C270        C  0.66432751  0.24260543  0.11542714    -0.09300
C271        C  0.63331581  0.27098773  0.12804973     0.29500
C272        C  0.60311825  0.26543438  0.15716315    -0.21300
C273        C  0.60209064  0.23143195  0.17465939    -0.09400
C274        C  0.63206872  0.20255030  0.16169630     0.29500
F275        F  0.63242242  0.16915318  0.17761740    -0.19900
H276        H  0.68646877  0.18593174  0.12368282     0.17900
H277        H  0.58002490  0.28805308  0.16583582     0.17900
F278        F  0.63191774  0.30450143  0.11232733    -0.19900
C279        C  0.61757014  0.26213603  0.34551369    -0.21300
C280        C  0.58909161  0.23039459  0.33654401    -0.09300
C281        C  0.58508027  0.20101232  0.36026205     0.29500
C282        C  0.61017223  0.20291491  0.39175926    -0.21300
C283        C  0.63993061  0.23396450  0.40031270    -0.09400
C284        C  0.64341119  0.26376512  0.37699794     0.29500
F285        F  0.67416188  0.29318244  0.38346865    -0.19900
H286        H  0.62107673  0.28502846  0.32762684     0.17900
H287        H  0.60708749  0.17962513  0.40924216     0.17900
F288        F  0.55644523  0.17044516  0.35322052    -0.19900
C289        C  0.87120677  0.23493298  0.13546826    -0.21300
C290        C  0.85803580  0.26841505  0.12013534    -0.09300
C291        C  0.87038638  0.30275401  0.13743180     0.29500
C292        C  0.89379590  0.30337059  0.16960991    -0.21300
C293        C  0.90642362  0.27002060  0.18529495    -0.09400
C294        C  0.89525960  0.23561921  0.16767784     0.29500
F295        F  0.90723331  0.20262801  0.18149699    -0.17500
H296        H  0.86184498  0.20808538  0.12299876     0.17900
H297        H  0.90274513  0.33034952  0.18196901     0.17900
F298        F  0.85973595  0.33602622  0.12350312    -0.19900
C299        C  0.84031373  0.28929055  0.39071929    -0.21300
C300        C  0.83567395  0.25359861  0.40512279    -0.09300
C301        C  0.86440562  0.22468546  0.39065083     0.29500
C302        C  0.89513440  0.23097190  0.36192579    -0.21300
C303        C  0.89888343  0.26622968  0.34670325    -0.09400
C304        C  0.87159198  0.29566033  0.36190308     0.29500
F305        F  0.87435926  0.33043377  0.34867144    -0.19900
H306        H  0.81873258  0.31207857  0.40113088     0.17900
H307        H  0.91626577  0.20786865  0.35163312     0.17900
F308        F  0.86301277  0.18999680  0.40420089    -0.19900
C309        C  0.38315411  0.18936271  0.38867183    -0.21300
C310        C  0.35042892  0.21848318  0.39409950    -0.09300
C311        C  0.34177127  0.24245156  0.36642038     0.29500
C312        C  0.36823249  0.23906874  0.33495686    -0.21300
C313        C  0.40303400  0.21131953  0.33022536    -0.09400
C314        C  0.40877613  0.18538030  0.35681437     0.29500
F315        F  0.44184583  0.15808623  0.35323817    -0.19900
H316        H  0.39020349  0.17051863  0.40965305     0.17900
H317        H  0.36305356  0.25930582  0.31482820     0.17900
F318        F  0.31087205  0.27118120  0.37086545    -0.19900
C319        C  0.42127864  0.18361596  0.14629682    -0.21300
C320        C  0.40762955  0.20559546  0.17585126    -0.09300
C321        C  0.36369974  0.22425663  0.17607469     0.29500
C322        C  0.33480226  0.22225680  0.14624284    -0.21300
C323        C  0.35044312  0.20275348  0.11570459    -0.09400
C324        C  0.39332300  0.18267524  0.11611223     0.29500
F325        F  0.40934036  0.16380329  0.08674987    -0.19900
H326        H  0.45513713  0.16911483  0.14582246     0.17900
H327        H  0.30211520  0.23822958  0.14609115     0.17900
F328        F  0.34954924  0.24523072  0.20466802    -0.19900
C329        C  0.16280935  0.26872777  0.37498921    -0.21300
C330        C  0.15138977  0.29265755  0.40379167    -0.09300
C331        C  0.11276233  0.31704503  0.40154584     0.29500
C332        C  0.08490786  0.31659149  0.37126453    -0.21300
C333        C  0.09412613  0.29085197  0.34341673    -0.09400
C334        C  0.13390409  0.26736176  0.34509373     0.29500
F335        F  0.14393296  0.24244931  0.31834786    -0.19900
H336        H  0.19209621  0.24936590  0.37662037     0.17900
H337        H  0.05427050  0.33476206  0.37049457     0.17900
F338        F  0.10077739  0.34012524  0.42926292    -0.19900
C339        C  0.16409341  0.26456022  0.15655354    -0.21300
C340        C  0.15055587  0.28359444  0.12659369    -0.09300
C341        C  0.11164398  0.30839636  0.12966180     0.29500
C342        C  0.08472251  0.31147074  0.16098334    -0.21300
C343        C  0.09565109  0.28977521  0.18971708    -0.09400
C344        C  0.13668315  0.26738014  0.18777106     0.29500
F345        F  0.14920928  0.24718434  0.21571355    -0.19900
H346        H  0.19398842  0.24560764  0.15517874     0.17900
H347        H  0.05334411  0.32896061  0.16194393     0.17900
F348        F  0.09797073  0.32837174  0.10184281    -0.19900
C349        C  0.86624656  0.05877797  0.00884839    -0.21300
C350        C  0.89763988  0.05989254  0.03743341    -0.09300
C351        C  0.89219592  0.08813080  0.06399034     0.29500
C352        C  0.85788478  0.11612516  0.06042518    -0.21300
C353        C  0.82869029  0.11615976  0.03043906    -0.09400
C354        C  0.83210836  0.08625812  0.00539737     0.29500
F355        F  0.80355304  0.08424127  0.97660931    -0.19900
H356        H  0.86898680  0.03699149  0.98840822     0.17900
H357        H  0.85615587  0.13887033  0.07996620     0.17900
F358        F  0.92207899  0.09021395  0.09201215    -0.19900
C359        C  0.09822707  0.14482475  0.01117170    -0.21300
C360        C  0.13607529  0.15397533  0.03432485    -0.09300
C361        C  0.14977831  0.12709275  0.05845609     0.29500
C362        C  0.12624179  0.09186440  0.05894663    -0.21300
C363        C  0.08942299  0.08259490  0.03499111    -0.09400
C364        C  0.07533331  0.10964480  0.01132895     0.29500
F365        F  0.03812647  0.10255456  0.98904878    -0.19900
H366        H  0.08636070  0.16493650  0.99261577     0.17900
H367        H  0.13706292  0.07171359  0.07780868     0.17900
F368        F  0.18502670  0.13509889  0.08212813    -0.19900
C369        C  0.12414464  0.84755049  0.99843540    -0.21300
C370        C  0.14806376  0.83545389  0.02814383    -0.09300
C371        C  0.15136547  0.85959228  0.05810308     0.29500
C372        C  0.12945805  0.89466765  0.05854706    -0.21300
C373        C  0.10463297  0.90650776  0.02895099    -0.09400
C374        C  0.10286774  0.88258330  0.99863214     0.29500
F375        F  0.07776421  0.89175764  0.96984923    -0.19900
H376        H  0.12103642  0.82938988  0.97509066     0.17900
H377        H  0.13064493  0.91208781  0.08243689     0.17900
F378        F  0.17305869  0.84834601  0.08763700    -0.19900
C379        C  0.92585413  0.87186251  0.00111446    -0.21300
C380        C  0.92171048  0.89610754  0.03093162    -0.09300
C381        C  0.89159700  0.88536010  0.05903340     0.29500
C382        C  0.86632775  0.85101950  0.05721871    -0.21300
C383        C  0.87131468  0.82647430  0.02772297    -0.09400
C384        C  0.90129741  0.83729742  0.99955278     0.29500
F385        F  0.90625123  0.81482204  0.97022071    -0.19900
H386        H  0.94900299  0.87933125  0.97915179     0.17900
H387        H  0.84339937  0.84330633  0.07921766     0.17900
F388        F  0.88613914  0.90813643  0.08807163    -0.19900
C389        C  0.61726794  0.41250444  0.45709956    -0.21300
C390        C  0.60738811  0.42962712  0.98139862    -0.09300
C391        C  0.63826519  0.42827641  0.01030937     0.29500
C392        C  0.67103470  0.39959801  0.01238864    -0.21300
C393        C  0.67411593  0.37126833  0.98592063    -0.09400
C394        C  0.65011323  0.38349201  0.46083620     0.29500
F395        F  0.65451782  0.35702462  0.43459256    -0.19900
H396        H  0.59640717  0.41314783  0.43324591     0.17900
H397        H  0.69240200  0.39845364  0.03598097     0.17900
F398        F  0.63552264  0.45380918  0.03752163    -0.19900
C399        C  0.41316683  0.38275701  0.02063594    -0.21300
C400        C  0.41256076  0.41633561  0.48347695    -0.09300
C401        C  0.38841432  0.40086677  0.45371391     0.29500
C402        C  0.36315805  0.36637113  0.45566142    -0.21300
C403        C  0.36270773  0.34625940  0.48688276    -0.09400
C404        C  0.38927349  0.34789017  0.02171926     0.29500
F405        F  0.39515992  0.32653312  0.05017352    -0.19900
H406        H  0.43644167  0.39126748  0.04226539     0.17900
H407        H  0.34534604  0.35473346  0.43242179     0.17900
F408        F  0.38945394  0.41874406  0.42274565    -0.19900
C409        C  0.36913308  0.59828948  0.45703877    -0.21300
C410        C  0.39775806  0.58915236  0.48573113    -0.09300
C411        C  0.38762256  0.59921307  0.02531619     0.29500
C412        C  0.37886978  0.64922593  0.51412250    -0.21300
C413        C  0.35157058  0.65890760  0.48519714    -0.09400
C414        C  0.34551698  0.63273892  0.45696764     0.29500
F415        F  0.31935434  0.64137312  0.42854247    -0.19900
H416        H  0.36610103  0.57922765  0.43434682     0.17900
H417        H  0.36390002  0.65089746  0.04900939     0.17900
F418        F  0.40951384  0.58973952  0.05539177    -0.19900
C419        C  0.60973528  0.61499109  0.45759214    -0.21300
C420        C  0.58198749  0.60367655  0.48675737    -0.09300
C421        C  0.57935766  0.62814530  0.51666695     0.29500
C422        C  0.60291263  0.66317552  0.51687080    -0.21300
C423        C  0.63036047  0.67461671  0.48767034    -0.09400
C424        C  0.63410068  0.64987436  0.45809659     0.29500
F425        F  0.65980091  0.65989683  0.42914116    -0.19900
H426        H  0.61296107  0.58316207  0.93700533     0.17900
H427        H  0.59959047  0.68149470  0.54006312     0.17900
F428        F  0.55260831  0.61895370  0.54540772    -0.19900
O429        O  0.55087668  0.47820246  0.51286245    -0.74400
O430        O  0.44365256  0.54313228  0.51322243    -0.74500
O431        O  0.45471538  0.46743469  0.51209552    -0.74500
O432        O  0.53911912  0.55350165  0.51420648    -0.74600
O433        O  0.53522821  0.54154582  0.95728677    -0.74500
O434        O  0.44864188  0.45537159  0.96001572    -0.74500
O435        O  0.43878162  0.53177691  0.96177092    -0.74400
O436        O  0.54590048  0.46530518  0.95465892    -0.74500
Ni437      Ni  0.49691887  0.51045767  0.51504529     1.25400
Ni438      Ni  0.49188260  0.49833769  0.95629969     1.25400
C439        C  0.56625359  0.45562506  0.98293873     0.87800
C440        C  0.42930000  0.55609451  0.48424855     0.87700
C441        C  0.43817081  0.44105071  0.98982343     0.87700
C442        C  0.55368960  0.56773000  0.48536683     0.87900
O443        O  0.06553144  0.96709334  0.55567267    -0.74400
O444        O  0.96005838  0.03441526  0.56040475    -0.74500
O445        O  0.96852587  0.95865716  0.55832843    -0.74500
O446        O  0.05714791  0.04307547  0.55686129    -0.74600
O447        O  0.04997896  0.03097727  0.00564312    -0.74500
O448        O  0.96457440  0.94581767  0.00370483    -0.74500
O449        O  0.95403791  0.02108723  0.00714380    -0.74400
O450        O  0.05997509  0.95457680  0.00276646    -0.74500
Ni451      Ni  0.01305724  0.00088946  0.55994822     1.25400
Ni452      Ni  0.00734776  0.98826622  0.00281578     1.25400
C453        C  0.08066387  0.95441195  0.52567049     0.87800
C454        C  0.94069233  0.04407812  0.53179480     0.87700
C455        C  0.95365215  0.94386909  0.52902771     0.87700
C456        C  0.06830914  0.05711004  0.52711022     0.87900
O457        O  0.14545594  0.26213691  0.96497104    -0.80900
O458        O  0.28582490  0.21971359  0.57742616    -0.65600
O459        O  0.22040325  0.28002411  0.51361957    -1.12200
C460        C  0.32713662  0.21891237  0.93029953     1.06000
O461        O  0.35809156  0.23581649  0.55646288    -0.78800
O462        O  0.36373763  0.28324026  0.50315055    -0.66400
Ni463      Ni  0.15122200  0.27930153  0.51390825     1.34900
C464        C  0.33745750  0.29697532  0.99340042     0.84700
O465        O  0.21751272  0.26851249  0.58731283    -0.79300
O466        O  0.14599314  0.28004873  0.56447547    -0.89600
C467        C  0.33085000  0.22331490  0.58067793     0.84300
O468        O  0.14465846  0.22616016  0.51112098    -0.67800
O469        O  0.35473021  0.21423984  0.95615985    -0.87100
C470        C  0.16731809  0.20091556  0.52631041     0.85100
C471        C  0.17341989  0.27680993  0.59065940     1.06700
H472        H  0.27515746  0.20465220  0.50107561     0.38500
O473        O  0.28527499  0.23035210  0.50567887    -1.09700
O474        O  0.29690294  0.29137662  0.97864577    -0.66400
Ni475      Ni  0.25103505  0.24988515  0.97483081     1.26300
O476        O  0.20657520  0.20742076  0.54256750    -0.66600
O477        O  0.28426505  0.23024294  0.93394629    -0.78900
C478        C  0.17232276  0.27472806  0.94065119     0.84500
O479        O  0.21700701  0.28008470  0.94431364    -0.66100
Ni480      Ni  0.35412783  0.23037250  0.50608092     1.27400
Ni481      Ni  0.25158339  0.24937150  0.54651984     1.26100
H482        H  0.23093636  0.30564978  0.51814072     0.39100
O483        O  0.70582641  0.33928596  0.53321906    -0.80900
O484        O  0.78198632  0.17808176  0.54479899    -0.65600
O485        O  0.77110882  0.28137202  0.52362460    -1.12200
C486        C  0.66952739  0.21834106  0.92990745     1.06000
O487        O  0.79577527  0.15583764  0.98950023    -0.78800
O488        O  0.78446208  0.19949154  0.93485123    -0.66400
Ni489      Ni  0.75772743  0.31870545  0.55863795     1.34900
C490        C  0.79616500  0.23360116  0.93074220     0.84700
O491        O  0.82027498  0.24085292  0.57365667    -0.79300
O492        O  0.80839987  0.30168655  0.58713218    -0.89600
C493        C  0.79910445  0.15693794  0.52033071     0.84300
O494        O  0.71171236  0.29110781  0.58549197    -0.67800
O495        O  0.68791238  0.18722120  0.93730097    -0.87100
C496        C  0.70161469  0.25663306  0.58917204     0.85100
C497        C  0.82868497  0.27072119  0.59213929     1.06700
H498        H  0.69915879  0.21610441  0.50974592     0.38500
O499        O  0.72888081  0.21232390  0.99847949    -1.09700
O500        O  0.77687512  0.26022989  0.94882471    -0.66400
Ni501      Ni  0.72380758  0.26231625  0.98285574     1.26300
O502        O  0.72286410  0.23073243  0.57132400    -0.66600
O503        O  0.67962440  0.24928427  0.94608301    -0.78900
C504        C  0.70328644  0.34706532  0.50087671     0.84500
O505        O  0.71665227  0.31407189  0.97134104    -0.66100
Ni506      Ni  0.74118563  0.17315703  0.96496770     1.27400
Ni507      Ni  0.77531465  0.23041165  0.53654143     1.26100
H508        H  0.80210788  0.28838196  0.51369085     0.39100
O509        O  0.84848154  0.71504620  0.95516058    -0.80900
O510        O  0.71781530  0.79776929  0.57874203    -0.65600
O511        O  0.77372138  0.73381223  0.50772802    -1.12200
C512        C  0.67298489  0.77995799  0.93446966     1.06000
O513        O  0.64311417  0.79087640  0.55874347    -0.78800
O514        O  0.63418785  0.73840356  0.50683429    -0.66400
Ni515      Ni  0.84238929  0.72903861  0.50512986     1.34900
C516        C  0.65416791  0.69959786  0.98981306     0.84700
O517        O  0.78009530  0.74362555  0.58187138    -0.79300
O518        O  0.84854983  0.72610012  0.55524217    -0.89600
C519        C  0.67267230  0.79945021  0.58310495     0.84300
O520        O  0.85600851  0.78148655  0.50662276    -0.67800
O521        O  0.64759949  0.78615293  0.96213683    -0.87100
C522        C  0.83689770  0.80810303  0.52437807     0.85100
C523        C  0.82242217  0.73087539  0.58266240     1.06700
H524        H  0.72751458  0.81339063  0.50279178     0.38500
O525        O  0.71498723  0.78824226  0.50580771    -1.09700
O526        O  0.69506012  0.70218134  0.97451971    -0.66400
Ni527      Ni  0.74568889  0.73990470  0.97176608     1.26300
O528        O  0.79745713  0.80458012  0.54157092    -0.66600
O529        O  0.71321246  0.76367770  0.93478046    -0.78900
C530        C  0.81813012  0.70790939  0.93099246     0.84500
O531        O  0.77326253  0.70809163  0.93651656    -0.66100
Ni532      Ni  0.64611152  0.79129760  0.50824957     1.27400
Ni533      Ni  0.74738292  0.76616397  0.54403924     1.26100
H534        H  0.76023409  0.70896808  0.51082234     0.39100
O535        O  0.35773009  0.76474993  0.55469139    -0.80900
O536        O  0.21482481  0.70775012  0.93574901    -0.65600
O537        O  0.28610294  0.77685919  0.50499002    -1.12200
C538        C  0.16949652  0.73299493  0.58583583     1.06000
O539        O  0.14341385  0.72399904  0.95722475    -0.78800
O540        O  0.14676936  0.78959674  0.51403796    -0.66400
Ni541      Ni  0.35430242  0.77590326  0.50550081     1.34900
C542        C  0.17441841  0.81397905  0.52864845     0.84700
O543        O  0.28646934  0.75760366  0.93233098    -0.79300
O544        O  0.35905261  0.75196793  0.95549190    -0.89600
C545        C  0.17034010  0.71312090  0.93178308     0.84300
O546        O  0.36114356  0.72372316  0.49507740    -0.67800
O547        O  0.14184013  0.73060581  0.55928265    -0.87100
C548        C  0.32639134  0.68515254  0.99344208     0.85100
C549        C  0.33178389  0.75697328  0.92952775     1.06700
H550        H  0.22042489  0.70572404  0.51533370     0.38500
O551        O  0.21479496  0.73174746  0.51113741    -1.09700
O552        O  0.21322315  0.80600225  0.54385810    -0.66400
Ni553      Ni  0.25066797  0.76101915  0.54534492     1.26300
O554        O  0.29390777  0.69381055  0.97167430    -0.66600
O555        O  0.21340218  0.74382839  0.58435998    -0.78900
C556        C  0.33459999  0.77844699  0.58104173     0.84500
O557        O  0.29119516  0.78809787  0.57826873    -0.66100
Ni558      Ni  0.14695868  0.73656304  0.50945388     1.27400
Ni559      Ni  0.25100164  0.73662225  0.97002362     1.26100
H560        H  0.27832360  0.80260942  0.50071539     0.39100
O561        O  0.05302219  0.24533236  0.73179654    -0.74400
O562        O  0.95390941  0.23424288  0.80190175    -0.74500
O563        O  0.95691106  0.23695746  0.72998781    -0.74500
O564        O  0.05032249  0.24330855  0.80287888    -0.74600
O565        O  0.04319345  0.30537800  0.80611831    -0.74500
O566        O  0.94792531  0.29866145  0.73542238    -0.74500
O567        O  0.94665696  0.29604071  0.80743398    -0.74400
O568        O  0.04390185  0.30717246  0.73441021    -0.74500
Ni569      Ni  0.00365279  0.23776256  0.76660750     1.25400
Ni570      Ni  0.99507077  0.30403699  0.77105175     1.25400
C571        C  0.06382778  0.27790485  0.72069504     0.87800
C572        C  0.93484750  0.26296081  0.81716447     0.87700
C573        C  0.93896978  0.26724069  0.71943767     0.87700
C574        C  0.06194540  0.27544195  0.81651768     0.87900
O575        O  0.04284499  0.67876496  0.72006417    -0.74400
O576        O  0.94333086  0.67340212  0.78943150    -0.74500
O577        O  0.94604154  0.67864571  0.71798946    -0.74500
O578        O  0.04072440  0.67493430  0.79146183    -0.74600
O579        O  0.04048979  0.73717582  0.79630315    -0.74500
O580        O  0.94673455  0.74091306  0.72395557    -0.74500
O581        O  0.94316450  0.73573042  0.79482664    -0.74400
O582        O  0.04408688  0.74117661  0.72542553    -0.74500
Ni583      Ni  0.99317364  0.67418967  0.75458044     1.25400
Ni584      Ni  0.99364245  0.74093914  0.76034512     1.25400
C585        C  0.05914546  0.71069557  0.71082798     0.87800
C586        C  0.92727647  0.70347641  0.80394244     0.87700
C587        C  0.93135522  0.71063200  0.70859348     0.87700
C588        C  0.05609654  0.70580572  0.80612750     0.87900
O589        O  0.46460406  0.75359428  0.78950009    -0.74400
O590        O  0.56333279  0.77346060  0.72198245    -0.74500
O591        O  0.55999881  0.76777476  0.79229731    -0.74500
O592        O  0.46795194  0.75936910  0.71861850    -0.74600
O593        O  0.45317873  0.82028388  0.72447233    -0.74500
O594        O  0.54617156  0.82887374  0.79887319    -0.74500
O595        O  0.54887675  0.83464165  0.72722332    -0.74400
O596        O  0.45045245  0.81462540  0.79566380    -0.74500
Ni597      Ni  0.51437081  0.76143258  0.75540213     1.25400
Ni598      Ni  0.49923213  0.82687742  0.76181359     1.25400
C599        C  0.44192998  0.78078458  0.80429053     0.87800
C600        C  0.57147847  0.80712525  0.71290106     0.87700
C601        C  0.56790789  0.79949223  0.80803859     0.87700
C602        C  0.44608751  0.78832593  0.70875033     0.87900
O603        O  0.55374808  0.19341147  0.71405277    -0.74400
O604        O  0.45623965  0.18247479  0.78714450    -0.74500
O605        O  0.45716478  0.18407101  0.71542423    -0.74500
O606        O  0.55235187  0.19066198  0.78597312    -0.74600
O607        O  0.54422191  0.25248333  0.79126196    -0.74500
O608        O  0.44942887  0.24615447  0.71912869    -0.74500
O609        O  0.44821001  0.24440607  0.78999235    -0.74400
O610        O  0.54606007  0.25521470  0.71909342    -0.74500
Ni611      Ni  0.50522771  0.18544187  0.75047179     1.25400
Ni612      Ni  0.49692156  0.25177935  0.75490707     1.25400
C613        C  0.56509717  0.22644370  0.70389669     0.87800
C614        C  0.43676103  0.21190727  0.80094059     0.87700
C615        C  0.43807716  0.21399774  0.70540447     0.87700
C616        C  0.56193917  0.22203583  0.80172228     0.87900
C617        C  0.39309242  0.75313857  0.62218066    -0.21300
C618        C  0.35891158  0.78024594  0.61554359    -0.09300
C619        C  0.35097747  0.80903946  0.64102723     0.29500
C620        C  0.37889559  0.81151352  0.67168748    -0.21300
C621        C  0.41399197  0.78470704  0.67779750    -0.09400
C622        C  0.41995492  0.75500132  0.65291409     0.29500
F623        F  0.45326589  0.72841083  0.65736750    -0.19900
H624        H  0.39950190  0.73041462  0.60318798     0.17900
H625        H  0.37336406  0.83453494  0.69048959     0.17900
F626        F  0.31791120  0.83556347  0.63564079    -0.19900
C627        C  0.34846799  0.79390924  0.87667385    -0.21300
C628        C  0.35414418  0.76096305  0.89491830    -0.09300
C629        C  0.38448247  0.73311718  0.88130755     0.29500
C630        C  0.41067904  0.73893331  0.85043392    -0.21300
C631        C  0.40775713  0.77296579  0.83318945    -0.09400
C632        C  0.37546111  0.80016869  0.84608767     0.29500
F633        F  0.37102050  0.83316752  0.82989429    -0.19900
H634        H  0.32496226  0.81551555  0.88708275     0.17900
H635        H  0.43509544  0.71747732  0.84106434     0.17900
F636        F  0.38953621  0.70068607  0.89836430    -0.19900
C637        C  0.11167620  0.69526081  0.62043947    -0.21300
C638        C  0.14816857  0.72301878  0.61988979    -0.09300
C639        C  0.15957487  0.74345171  0.65108108     0.29500
C640        C  0.13151597  0.73850000  0.68146495    -0.21300
C641        C  0.09321233  0.71226049  0.68120848    -0.09400
C642        C  0.08463527  0.68961134  0.65090989     0.29500
F643        F  0.04755577  0.66417313  0.64982846    -0.19900
H644        H  0.10277348  0.67891424  0.59675757     0.17900
H645        H  0.13873564  0.75583464  0.70484334     0.17900
F646        F  0.19534461  0.76995882  0.65151078    -0.19900
C647        C  0.13436066  0.67520394  0.88164470    -0.21300
C648        C  0.14894832  0.71005796  0.89648438    -0.09300
C649        C  0.13646687  0.74282347  0.87988365     0.29500
C650        C  0.10835493  0.74086059  0.84964938    -0.21300
C651        C  0.09123915  0.70617675  0.83551186    -0.09400
C652        C  0.10568397  0.67314173  0.85136403     0.29500
F653        F  0.09039508  0.63900018  0.83875118    -0.19900
H654        H  0.14321987  0.64969098  0.89447249     0.17900
H655        H  0.09850633  0.76684772  0.83809263     0.17900
F656        F  0.14983584  0.77692412  0.89384278    -0.19900
C657        C  0.64030065  0.77689302  0.83795684    -0.21300
C658        C  0.60111633  0.80103849  0.83810295    -0.09300
C659        C  0.59046398  0.82235671  0.86886839     0.29500
C660        C  0.61603074  0.81700041  0.89972949    -0.21300
C661        C  0.65304317  0.79075370  0.90031442    -0.09400
C662        C  0.66648140  0.77204607  0.86857485     0.29500
F663        F  0.70237888  0.74688849  0.86757930    -0.19900
H664        H  0.64936428  0.76046178  0.81438788     0.17900
H665        H  0.60533465  0.83219228  0.92363200     0.17900
F666        F  0.55276812  0.84589988  0.87001356    -0.19900
C667        C  0.67306132  0.79381621  0.64804201    -0.21300
C668        C  0.65278353  0.80890855  0.61815133    -0.09300
C669        C  0.60949203  0.82843868  0.62148942     0.29500
C670        C  0.58575705  0.83119704  0.65395028    -0.21300
C671        C  0.60386738  0.81331779  0.68302150    -0.09400
C672        C  0.64820854  0.79529922  0.68024405     0.29500
F673        F  0.66595096  0.77739036  0.70806503    -0.19900
H674        H  0.70611262  0.77832980  0.64582379     0.17900
H675        H  0.55107466  0.84448745  0.65561320     0.17900
F676        F  0.58873312  0.84296306  0.59296553    -0.19900
C677        C  0.86588737  0.67187965  0.88703735    -0.21300
C678        C  0.83655485  0.70234147  0.89512126    -0.09300
C679        C  0.83224400  0.73083997  0.87094492     0.29500
C680        C  0.86023156  0.73026369  0.84014425    -0.21300
C681        C  0.89187069  0.70083535  0.83290949    -0.09400
C682        C  0.89285723  0.67069721  0.85582430     0.29500
F683        F  0.92286315  0.64167195  0.84965174    -0.19900
H684        H  0.86966334  0.64993388  0.90573350     0.17900
H685        H  0.85865324  0.75352693  0.82267480     0.17900
F686        F  0.80424959  0.76075286  0.87859597    -0.19900
C687        C  0.89995716  0.68660871  0.65052215    -0.21300
C688        C  0.89795586  0.71314888  0.67859592    -0.09300
C689        C  0.86711121  0.74375295  0.67603060     0.29500
C690        C  0.83985573  0.74794667  0.64565203    -0.21300
C691        C  0.84399771  0.72247324  0.61687694    -0.09400
C692        C  0.87389224  0.69146016  0.61976022     0.29500
F693        F  0.87883834  0.66629636  0.59242876    -0.19900
H694        H  0.92368876  0.66305496  0.65163383     0.17900
H695        H  0.81756889  0.77228170  0.64383937     0.17900
F696        F  0.86414564  0.77014796  0.70249566    -0.19900
C697        C  0.66018443  0.21114650  0.63043876    -0.21300
C698        C  0.66422726  0.24716218  0.61650667    -0.09300
C699        C  0.63423410  0.27528935  0.63097723     0.29500
C700        C  0.60267332  0.26791242  0.65896239    -0.21300
C701        C  0.59936894  0.23236247  0.67365456    -0.09400
C702        C  0.62810815  0.20371919  0.65863188     0.29500
F703        F  0.62616064  0.16880603  0.67158928    -0.19900
H704        H  0.68274973  0.18891155  0.62012243     0.17900
H705        H  0.58059084  0.29049468  0.66918136     0.17900
F706        F  0.63527060  0.31036566  0.61828932    -0.19900
C707        C  0.58777922  0.25185013  0.85896202    -0.21300
C708        C  0.59080733  0.22207513  0.83395369    -0.09300
C709        C  0.61690237  0.19028639  0.84205226     0.29500
C710        C  0.63993629  0.18865719  0.87418029    -0.21300
C711        C  0.63803715  0.21869104  0.89894055    -0.09400
C712        C  0.61099989  0.25019758  0.89128368     0.29500
F713        F  0.60672459  0.27925530  0.91497407    -0.19900
H714        H  0.56661261  0.27610989  0.85382479     0.17900
H715        H  0.66075907  0.16414818  0.87905866     0.17900
F716        F  0.62079065  0.16075217  0.81880850    -0.19900
C717        C  0.87404794  0.23494176  0.63602896    -0.21300
C718        C  0.86119573  0.26945747  0.62256943    -0.09300
C719        C  0.87507689  0.30276684  0.64098615     0.29500
C720        C  0.89879540  0.30139026  0.67284883    -0.21300
C721        C  0.91045757  0.26699735  0.68692552    -0.09400
C722        C  0.89873922  0.23363307  0.66782710     0.29500
F723        F  0.91081542  0.19979429  0.67980322    -0.17500
H724        H  0.86392546  0.20886271  0.62244160     0.17900
H725        H  0.90862711  0.32763859  0.68625953     0.17900
F726        F  0.86556249  0.33693675  0.62849246    -0.19900
C727        C  0.84585220  0.27901632  0.89437216    -0.21300
C728        C  0.83321782  0.24195148  0.90285328    -0.09300
C729        C  0.85513260  0.21252375  0.88317968     0.29500
C730        C  0.88747264  0.22002132  0.85573968    -0.21300
C731        C  0.89955982  0.25688504  0.84669994    -0.09400
C732        C  0.87867433  0.28650640  0.86671467     0.29500
F733        F  0.88978822  0.32267796  0.85971791    -0.19900
H734        H  0.82995686  0.30232028  0.90892222     0.17900
H735        H  0.90305047  0.19644792  0.84139044     0.17900
F736        F  0.84532058  0.17607769  0.89001567    -0.19900
C737        C  0.37777051  0.18260985  0.88679238    -0.21300
C738        C  0.34759545  0.21295299  0.89443944    -0.09300
C739        C  0.34286204  0.24045960  0.86925569     0.29500
C740        C  0.37021771  0.23881250  0.83805984    -0.21300
C741        C  0.40216931  0.20938861  0.83098870    -0.09400
C742        C  0.40442884  0.18051227  0.85518213     0.29500
F743        F  0.43499574  0.15175657  0.84962591    -0.19900
H744        H  0.38205809  0.16121002  0.90595854     0.17900
H745        H  0.36774637  0.26145121  0.81996560     0.17900
F746        F  0.31495990  0.27062081  0.87612045    -0.19900
C747        C  0.41788641  0.18971508  0.64605554    -0.21300
C748        C  0.40509739  0.21157080  0.67591190    -0.09300
C749        C  0.36405019  0.23369715  0.67555582     0.29500
C750        C  0.33731849  0.23517727  0.64483548    -0.21300
C751        C  0.35246589  0.21555903  0.61423040    -0.09400
C752        C  0.39225707  0.19223163  0.61507759     0.29500
F753        F  0.40736949  0.17315367  0.58558521    -0.19900
H754        H  0.44966792  0.17267498  0.64602429     0.17900
H755        H  0.30672183  0.25341589  0.64426045     0.17900
F756        F  0.35085845  0.25461936  0.70445421    -0.19900
C757        C  0.15731363  0.25073918  0.88063071    -0.21300
C758        C  0.15122821  0.27911228  0.90645973    -0.09300
C759        C  0.11891923  0.30783980  0.90146024     0.29500
C760        C  0.09181774  0.30759926  0.87090853    -0.21300
C761        C  0.09571832  0.27801518  0.84576547    -0.09400
C762        C  0.12926961  0.24982688  0.85051900     0.29500
F763        F  0.13384405  0.22083935  0.82675503    -0.19900
H764        H  0.18174524  0.22813444  0.88479919     0.17900
H765        H  0.06584480  0.32938364  0.86788197     0.17900
F766        F  0.11210563  0.33501820  0.92679004    -0.19900
C767        C  0.16125807  0.25544515  0.65230633    -0.21300
C768        C  0.15148958  0.28120717  0.62634624    -0.09300
C769        C  0.11585697  0.30795629  0.63326127     0.29500
C770        C  0.08975146  0.30824093  0.66507365    -0.21300
C771        C  0.09750238  0.28115903  0.69019672    -0.09400
C772        C  0.13403064  0.25494220  0.68369488     0.29500
F773        F  0.14252073  0.22816560  0.70720832    -0.19900
H774        H  0.18803757  0.23425442  0.64738969     0.17900
H775        H  0.06150375  0.32839198  0.66917899     0.17900
F776        F  0.10528125  0.33318664  0.60875474    -0.19900
C777        C  0.86780389  0.06843950  0.50442501    -0.21300
C778        C  0.89945461  0.06954257  0.53286727    -0.09300
C779        C  0.89261068  0.09635210  0.56050720     0.29500
C780        C  0.85721317  0.12355301  0.55790601    -0.21300
C781        C  0.82813882  0.12402810  0.52792749    -0.09400
C782        C  0.83233317  0.09505912  0.50204304     0.29500
F783        F  0.80333777  0.09332582  0.47349039    -0.19900
H784        H  0.87135393  0.04744475  0.48333702     0.17900
H785        H  0.85460832  0.14549929  0.57818674     0.17900
F786        F  0.92208577  0.09790027  0.58876797    -0.19900
C787        C  0.11256939  0.15237059  0.49913316    -0.21300
C788        C  0.14601475  0.16250648  0.52536121    -0.09300
C789        C  0.15589917  0.13658406  0.55136706     0.29500
C790        C  0.13113532  0.10195704  0.55167733    -0.21300
C791        C  0.09701589  0.09235414  0.52575068    -0.09400
C792        C  0.08844394  0.11777676  0.49917429     0.29500
F793        F  0.05476497  0.11013612  0.47419339    -0.19900
H794        H  0.10427784  0.17162588  0.47875912     0.17900
H795        H  0.13827867  0.08278518  0.57236513     0.17900
F796        F  0.18781414  0.14521015  0.57732576    -0.19900
C797        C  0.14063959  0.86522563  0.49527207    -0.21300
C798        C  0.16001697  0.85332240  0.52681998    -0.09300
C799        C  0.16045706  0.87788244  0.55648197     0.29500
C800        C  0.13771332  0.91243929  0.55524492    -0.21300
C801        C  0.11484247  0.92309455  0.52433549    -0.09400
C802        C  0.11865852  0.89980056  0.49379776     0.29500
F803        F  0.09774030  0.90876485  0.46318955    -0.19900
H804        H  0.14065874  0.84686233  0.47195485     0.17900
H805        H  0.13565757  0.92990142  0.57907346     0.17900
F806        F  0.17909403  0.86725590  0.58735310    -0.19900
C807        C  0.91155155  0.89146436  0.49598132    -0.21300
C808        C  0.92094183  0.91042628  0.52836525    -0.09300
C809        C  0.89972376  0.89644947  0.55931735     0.29500
C810        C  0.87037404  0.86402636  0.55768939    -0.21300
C811        C  0.86271644  0.84457587  0.52543787    -0.09400
C812        C  0.88320253  0.85874306  0.49452669     0.29500
F813        F  0.87587481  0.84083743  0.46286274    -0.19900
H814        H  0.92709846  0.90143470  0.47164149     0.17900
H815        H  0.85518240  0.85324435  0.58183106     0.17900
F816        F  0.90786974  0.91359736  0.59118519    -0.19900
C817        C  0.61400973  0.40380514  0.95287346    -0.21300
C818        C  0.60905529  0.43885130  0.48487870    -0.09300
C819        C  0.63688144  0.43719857  0.51544964     0.29500
C820        C  0.66956152  0.40860676  0.51902084    -0.21300
C821        C  0.67544424  0.38061716  0.49247899    -0.09400
C822        C  0.64735602  0.37479611  0.95499764     0.29500
F823        F  0.65091504  0.34907343  0.92804103    -0.19900
H824        H  0.59146823  0.40471352  0.92988025     0.17900
H825        H  0.68912413  0.40760632  0.54345644     0.17900
F826        F  0.63161825  0.46262214  0.54255310    -0.19900
C827        C  0.41077602  0.39636629  0.51480113    -0.21300
C828        C  0.40868893  0.40575450  0.99154789    -0.09300
C829        C  0.37765203  0.39371704  0.96416845     0.29500
C830        C  0.35310256  0.35897078  0.96550758    -0.21300
C831        C  0.35961568  0.33525923  0.99380673    -0.09400
C832        C  0.38671607  0.36173008  0.51643804     0.29500
F833        F  0.38683719  0.34332846  0.54712456    -0.19900
H834        H  0.42914606  0.40712592  0.53813058     0.17900
H835        H  0.33019177  0.35004841  0.94379062     0.17900
F836        F  0.37105084  0.41542324  0.93608471    -0.19900
C837        C  0.36835853  0.58831755  0.96377488    -0.21300
C838        C  0.39125680  0.57659597  0.99426093    -0.09300
C839        C  0.40129645  0.61480528  0.51467589     0.29500
C840        C  0.36426785  0.63346931  0.02509676    -0.21300
C841        C  0.34364855  0.64610055  0.99418166    -0.09400
C842        C  0.34473604  0.62262901  0.96365331     0.29500
F843        F  0.32631339  0.63400558  0.93297564    -0.19900
H844        H  0.37071897  0.57175555  0.93941645     0.17900
H845        H  0.38378879  0.66888975  0.53622270     0.17900
F846        F  0.42938082  0.60797385  0.54263199    -0.19900
C847        C  0.60801464  0.60260413  0.95919806    -0.21300
C848        C  0.57666406  0.59327430  0.98702056    -0.09300
C849        C  0.57082648  0.61930944  0.01541462     0.29500
C850        C  0.59567069  0.65377143  0.01581219    -0.21300
C851        C  0.62770579  0.66295052  0.98837763    -0.09400
C852        C  0.63386830  0.63685525  0.96002820     0.29500
F853        F  0.66409330  0.64470628  0.93276325    -0.19900
H854        H  0.61234932  0.59688733  0.43421801     0.17900
H855        H  0.59020647  0.67320250  0.03795507     0.17900
F856        F  0.54006516  0.61193047  0.04251255    -0.19900
loop_ 
_geom_bond_atom_site_label_1 
_geom_bond_atom_site_label_2 
_geom_bond_distance 
_geom_bond_site_symmetry_2 
_ccdc_geom_bond_type 
O1           Ni9   1.918       .  S
O1          C439   1.283   1_554  A
O2           Ni9   1.920       .  S
O2           C12   1.282   1_554  A
O3           Ni9   1.917       .  S
O3          C441   1.281   1_554  A
O4           Ni9   1.910       .  S
O4           C14   1.279   1_554  A
O5          Ni10   1.936       .  S
O5          C442   1.286       .  A
O6          Ni10   1.937       .  S
O6           C13   1.285       .  A
O7          Ni10   1.933       .  S
O7          C440   1.284       .  A
O8          Ni10   1.934       .  S
O8           C11   1.284       .  A
Ni9        Ni438   2.384   1_554  S
Ni10       Ni437   2.383       .  S
C11         O429   1.281       .  A
C11         C818   1.488       .  S
C12         O435   1.283       .  A
C12         C838   1.491       .  S
C13         O431   1.281       .  A
C13         C400   1.493       .  S
C14         O433   1.285       .  A
C14         C848   1.485       .  S
O15         Ni23   1.927       .  S
O15          C25   1.283       .  A
O16         Ni23   1.927   1_645  S
O16          C26   1.282       .  A
O17         Ni23   1.929   1_655  S
O17          C27   1.284       .  A
O18         Ni23   1.932   1_545  S
O18          C28   1.284       .  A
O19         Ni24   1.906   1_545  S
O19         C456   1.279       .  A
O20         Ni24   1.904   1_655  S
O20         C455   1.279       .  A
O21         Ni24   1.914   1_645  S
O21         C454   1.283       .  A
O22         Ni24   1.916       .  S
O22         C453   1.282       .  A
Ni23       Ni452   2.386       .  S
Ni24       Ni451   2.386   1_565  S
C25         O450   1.282       .  A
C25         C373   1.488       .  S
C26         O449   1.282       .  A
C26         C350   1.482       .  S
C27         O448   1.279       .  A
C27         C380   1.481       .  S
C28         O447   1.280       .  A
C28         C363   1.482       .  S
O29        Ni463   1.918       .  S
O29          C50   1.269       .  A
O30         Ni53   1.899       .  S
O30          C39   1.267       .  A
O31         Ni35   1.909       .  S
O31         Ni53   1.902       .  S
O31        Ni475   1.912   1_554  S
O31          H54   0.966       .  S
C32          O49   1.272       .  A
C32          O41   1.273       .  A
C32         C310   1.477       .  S
O33         Ni52   1.914       .  S
O33          C39   1.270       .  A
O34         Ni52   1.914       .  S
O34         C464   1.271   1_554  A
Ni35         O38   1.910       .  S
Ni35         O40   1.910       .  S
Ni35        O457   1.917   1_554  S
C36          O46   1.275       .  A
C36         O462   1.270       .  A
C36         C403   1.484       .  S
O37         Ni53   1.936       .  S
O37          C43   1.280       .  A
O38          C43   1.272       .  A
C39         C323   1.461       .  S
O40          C42   1.270       .  A
O41        Ni480   1.922       .  S
C42          O48   1.273       .  A
C42         C360   1.489       .  S
C43         C340   1.488       .  S
H44          O45   0.965       .  S
O45         Ni53   1.931       .  S
O45         Ni52   1.915       .  S
O45        Ni475   1.909   1_554  S
O46         Ni47   1.941       .  S
Ni47         O51   1.898       .  S
Ni47         O49   1.913       .  S
Ni47        O459   1.932       .  S
Ni47        O473   1.903       .  S
O48         Ni53   1.934       .  S
C50          O51   1.264       .  A
C50         C330   1.464       .  S
Ni52        O469   1.924   1_554  S
O55         Ni61   1.915       .  S
O55          C76   1.269   1_554  A
O56         Ni79   1.927       .  S
O56          C65   1.274       .  A
O57         Ni61   1.887       .  S
O57         Ni79   1.910       .  S
O57        Ni501   1.911   1_554  S
O57          H80   0.967       .  S
C58          O75   1.276       .  A
C58          O67   1.275       .  A
C58         C283   1.472       .  S
O59         Ni78   1.915       .  S
O59         C493   1.270       .  A
O60         Ni78   1.904       .  S
O60          C62   1.269       .  A
Ni61         O64   1.909       .  S
Ni61         O66   1.897       .  S
C62          O72   1.279       .  A
C62         C300   1.496       .  S
O63         Ni79   1.920       .  S
O63          C69   1.278       .  A
O64          C69   1.275       .  A
C65         O487   1.270   1_554  A
C65         C353   1.485       .  S
O66          C68   1.268       .  A
O67         Ni78   1.912       .  S
C68          O74   1.280       .  A
C68         C270   1.497       .  S
C69         C290   1.481       .  S
H70         O499   0.967   1_554  S
O71         Ni73   1.908       .  S
O71         Ni78   1.891       .  S
O71        Ni507   1.915       .  S
O71         H498   0.967       .  S
O72         Ni73   1.951       .  S
Ni73         O77   1.924       .  S
Ni73         O75   1.919       .  S
Ni73        O485   1.913       .  S
O74         Ni79   1.955       .  S
C76         O505   1.272       .  A
C76         C393   1.487       .  S
O77         C504   1.274       .  A
Ni79        O499   1.917   1_554  S
O81        Ni515   1.917       .  S
O81         C102   1.268       .  A
O82        Ni105   1.906       .  S
O82          C91   1.267       .  A
O83         Ni87   1.918       .  S
O83        Ni105   1.912       .  S
O83        Ni527   1.919   1_554  S
O83         H106   0.966       .  S
C84         O101   1.269       .  A
C84          O93   1.273       .  A
C84         C233   1.478       .  S
O85        Ni104   1.918       .  S
O85          C91   1.270       .  A
O86        Ni104   1.914       .  S
O86         C516   1.271   1_554  A
Ni87         O90   1.924       .  S
Ni87         O92   1.911       .  S
Ni87        O509   1.925   1_554  S
C88          O98   1.274       .  A
C88         O514   1.271       .  A
C88         C423   1.488       .  S
O89        Ni105   1.915       .  S
O89          C95   1.274       .  A
O90          C95   1.274       .  A
C91         C240   1.465       .  S
O92          C94   1.270       .  A
O93        Ni532   1.927       .  S
C94         O100   1.272       .  A
C94         C383   1.480       .  S
C95         C263   1.484       .  S
H96          O97   0.966       .  S
O97        Ni105   1.916       .  S
O97        Ni104   1.912       .  S
O97        Ni527   1.903   1_554  S
O98         Ni99   1.940       .  S
Ni99        O103   1.897       .  S
Ni99        O101   1.908       .  S
Ni99        O511   1.925       .  S
Ni99        O525   1.908       .  S
O100       Ni105   1.926       .  S
C102        O103   1.263       .  A
C102        C250   1.461       .  S
Ni104       O521   1.922   1_554  S
O107       Ni113   1.924       .  S
O107        C128   1.271       .  A
O108       Ni131   1.913       .  S
O108        C117   1.267       .  A
O109       Ni113   1.915       .  S
O109       Ni125   1.917       .  S
O109       Ni559   1.913   1_554  S
O109        H132   0.969       .  S
C110        O127   1.267       .  A
C110        O119   1.275       .  A
C110        C210   1.469       .  S
O111       Ni558   1.922       .  S
O111        C117   1.270       .  A
O112       Ni130   1.905       .  S
O112        C114   1.269       .  A
Ni113       O118   1.902       .  S
Ni113       O544   1.931   1_554  S
C114        O124   1.273       .  A
C114        C370   1.481       .  S
O115       Ni131   1.911       .  S
O115        C121   1.274       .  A
O116       Ni541   1.920       .  S
O116        C121   1.276       .  A
C117        C220   1.473       .  S
O118        C548   1.271   1_554  A
O119       Ni130   1.925       .  S
C120        O126   1.272       .  A
C120        O546   1.270       .  A
C120        C413   1.478       .  S
C121        C200   1.470       .  S
H122        O123   0.967       .  S
O123       Ni125   1.914       .  S
O123       Ni130   1.916       .  S
O123       Ni559   1.902   1_554  S
O124       Ni125   1.937       .  S
Ni125       O129   1.900       .  S
Ni125       O127   1.897       .  S
O126       Ni131   1.931       .  S
C128        O129   1.265       .  A
C128        C190   1.469       .  S
Ni130       O539   1.930   1_554  S
Ni131       O537   1.910       .  S
Ni131       O551   1.904       .  S
O133       Ni141   1.912       .  S
O133        C143   1.280       .  A
O134       Ni141   1.922   1_655  S
O134        C144   1.284       .  A
O135       Ni141   1.921   1_655  S
O135        C145   1.281       .  A
O136       Ni141   1.912       .  S
O136        C146   1.280       .  A
O137       Ni142   1.909   1_455  S
O137        C146   1.280       .  A
O138       Ni142   1.907       .  S
O138        C145   1.281       .  A
O139       Ni142   1.935       .  S
O139        C144   1.284       .  A
O140       Ni142   1.932   1_455  S
O140        C143   1.284       .  A
Ni141      Ni142   2.386   1_455  S
C143        C343   1.479       .  S
C144        C303   1.497       .  S
C145        C293   1.482       .  S
C146        C333   1.468       .  S
O147       Ni155   1.909   1_455  S
O147        C157   1.279       .  A
O148       Ni155   1.915       .  S
O148        C158   1.281       .  A
O149       Ni155   1.929       .  S
O149        C159   1.284       .  A
O150       Ni155   1.931   1_455  S
O150        C160   1.284       .  A
O151       Ni156   1.904   1_455  S
O151        C160   1.280       .  A
O152       Ni156   1.906       .  S
O152        C159   1.279       .  A
O153       Ni156   1.910       .  S
O153        C158   1.280       .  A
O154       Ni156   1.913   1_455  S
O154        C157   1.281       .  A
Ni155      Ni156   2.390       .  S
C157        C213   1.467       .  S
C158        C253   1.471       .  S
C159        C260   1.474       .  S
C160        C223   1.482       .  S
O161       Ni169   1.909       .  S
O161        C171   1.280       .  A
O162       Ni169   1.911       .  S
O162        C172   1.280       .  A
O163       Ni169   1.914       .  S
O163        C173   1.281       .  A
O164       Ni169   1.917       .  S
O164        C174   1.281       .  A
O165       Ni170   1.919       .  S
O165        C174   1.281       .  A
O166       Ni170   1.920       .  S
O166        C173   1.282       .  A
O167       Ni170   1.916       .  S
O167        C172   1.280       .  A
O168       Ni170   1.915       .  S
O168        C171   1.281       .  A
Ni169      Ni170   2.391       .  S
C171        C203   1.471       .  S
C172        C243   1.467       .  S
C173        C230   1.475       .  S
C174        C193   1.473       .  S
O175       Ni183   1.935       .  S
O175        C185   1.284       .  A
O176       Ni183   1.930       .  S
O176        C186   1.284       .  A
O177       Ni183   1.903       .  S
O177        C187   1.277       .  A
O178       Ni183   1.901       .  S
O178        C188   1.279       .  A
O179       Ni184   1.925       .  S
O179        C188   1.282       .  A
O180       Ni184   1.915       .  S
O180        C187   1.281       .  A
O181       Ni184   1.907       .  S
O181        C186   1.279       .  A
O182       Ni184   1.918       .  S
O182        C185   1.283       .  A
Ni183      Ni184   2.388       .  S
C185        C273   1.495       .  S
C186        C313   1.480       .  S
C187        C320   1.461       .  S
C188        C280   1.474       .  S
C189        C190   1.403       .  A
C189        C194   1.399       .  A
C189        H196   1.084       .  S
C190        C191   1.403       .  A
C191        C192   1.398       .  A
C191        F198   1.357       .  S
C192        C193   1.404       .  A
C192        H197   1.083       .  S
C193        C194   1.407       .  A
C194        F195   1.358       .  S
C199        C200   1.403       .  A
C199        C204   1.396       .  A
C199        H206   1.083       .  S
C200        C201   1.405       .  A
C201        C202   1.396       .  A
C201        F208   1.358       .  S
C202        C203   1.404       .  A
C202        H207   1.083       .  S
C203        C204   1.406       .  A
C204        F205   1.358       .  S
C209        C210   1.402       .  A
C209        C214   1.394       .  A
C209        H216   1.083       .  S
C210        C211   1.407       .  A
C211        C212   1.397       .  A
C211        F218   1.358       .  S
C212        C213   1.402       .  A
C212        H217   1.083       .  S
C213        C214   1.405       .  A
C214        F215   1.358       .  S
C219        C220   1.405       .  A
C219        C224   1.406       .  A
C219        H226   1.083       .  S
C220        C221   1.404       .  A
C221        C222   1.389       .  A
C221        F228   1.358       .  S
C222        C223   1.404       .  A
C222        H227   1.083       .  S
C223        C224   1.411       .  A
C224        F225   1.357       .  S
C229        C230   1.404       .  A
C229        C234   1.398       .  A
C229        H236   1.083       .  S
C230        C231   1.406       .  A
C231        C232   1.399       .  A
C231        F238   1.358       .  S
C232        C233   1.405       .  A
C232        H237   1.083       .  S
C233        C234   1.406       .  A
C234        F235   1.357       .  S
C239        C240   1.401       .  A
C239        C244   1.399       .  A
C239        H246   1.084       .  S
C240        C241   1.405       .  A
C241        C242   1.395       .  A
C241        F248   1.358       .  S
C242        C243   1.401       .  A
C242        H247   1.084       .  S
C243        C244   1.406       .  A
C244        F245   1.357       .  S
C249        C250   1.400       .  A
C249        C254   1.393       .  A
C249        H256   1.084       .  S
C250        C251   1.403       .  A
C251        C252   1.398       .  A
C251        F258   1.358       .  S
C252        C253   1.406       .  A
C252        H257   1.083       .  S
C253        C254   1.406       .  A
C254        F255   1.357       .  S
C259        C260   1.402       .  A
C259        C264   1.400       .  A
C259        H266   1.084       .  S
C260        C261   1.406       .  A
C261        C262   1.398       .  A
C261        F268   1.358       .  S
C262        C263   1.405       .  A
C262        H267   1.083       .  S
C263        C264   1.411       .  A
C264        F265   1.357       .  S
C269        C270   1.409       .  A
C269        C274   1.411       .  A
C269        H276   1.083       .  S
C270        C271   1.413       .  A
C271        C272   1.396       .  A
C271        F278   1.358       .  S
C272        C273   1.404       .  A
C272        H277   1.083       .  S
C273        C274   1.412       .  A
C274        F275   1.357       .  S
C279        C280   1.403       .  A
C279        C284   1.401       .  A
C279        H286   1.083       .  S
C280        C281   1.408       .  A
C281        C282   1.391       .  A
C281        F288   1.358       .  S
C282        C283   1.400       .  A
C282        H287   1.084       .  S
C283        C284   1.409       .  A
C284        F285   1.357       .  S
C289        C290   1.406       .  A
C289        C294   1.401       .  A
C289        H296   1.083       .  S
C290        C291   1.410       .  A
C291        C292   1.391       .  A
C291        F298   1.358       .  S
C292        C293   1.404       .  A
C292        H297   1.083       .  S
C293        C294   1.410       .  A
C294        F295   1.357       .  S
C299        C300   1.408       .  A
C299        C304   1.410       .  A
C299        H306   1.083       .  S
C300        C301   1.412       .  A
C301        C302   1.397       .  A
C301        F308   1.358       .  S
C302        C303   1.406       .  A
C302        H307   1.083       .  S
C303        C304   1.413       .  A
C304        F305   1.357       .  S
C309        C310   1.405       .  A
C309        C314   1.400       .  A
C309        H316   1.083       .  S
C310        C311   1.405       .  A
C311        C312   1.398       .  A
C311        F318   1.358       .  S
C312        C313   1.406       .  A
C312        H317   1.083       .  S
C313        C314   1.407       .  A
C314        F315   1.357       .  S
C319        C320   1.401       .  A
C319        C324   1.392       .  A
C319        H326   1.084       .  S
C320        C321   1.404       .  A
C321        C322   1.396       .  A
C321        F328   1.357       .  S
C322        C323   1.402       .  A
C322        H327   1.084       .  S
C323        C324   1.405       .  A
C324        F325   1.358       .  S
C329        C330   1.403       .  A
C329        C334   1.398       .  A
C329        H336   1.084       .  S
C330        C331   1.403       .  A
C331        C332   1.394       .  A
C331        F338   1.357       .  S
C332        C333   1.402       .  A
C332        H337   1.084       .  S
C333        C334   1.406       .  A
C334        F335   1.358       .  S
C339        C340   1.405       .  A
C339        C344   1.402       .  A
C339        H346   1.083       .  S
C340        C341   1.415       .  A
C341        C342   1.399       .  A
C341        F348   1.358       .  S
C342        C343   1.401       .  A
C342        H347   1.084       .  S
C343        C344   1.407       .  A
C344        F345   1.357       .  S
C349        C350   1.400       .  A
C349        C354   1.391       .  A
C349        H356   1.084   1_554  S
C350        C351   1.411       .  A
C351        C352   1.408       .  A
C351        F358   1.357       .  S
C352        C353   1.407       .  A
C352        H357   1.083       .  S
C353        C354   1.410       .  A
C354        F355   1.358   1_554  S
C359        C360   1.405       .  A
C359        C364   1.396       .  A
C359        H366   1.083   1_554  S
C360        C361   1.412       .  A
C361        C362   1.406       .  A
C361        F368   1.357       .  S
C362        C363   1.404       .  A
C362        H367   1.083       .  S
C363        C364   1.408       .  A
C364        F365   1.358   1_554  S
C369        C370   1.403   1_556  A
C369        C374   1.396       .  A
C369        H376   1.084       .  S
C370        C371   1.407       .  A
C371        C372   1.405       .  A
C371        F378   1.357       .  S
C372        C373   1.409       .  A
C372        H377   1.083       .  S
C373        C374   1.411   1_554  A
C374        F375   1.358       .  S
C379        C380   1.407       .  A
C379        C384   1.398   1_554  A
C379        H386   1.083   1_554  S
C380        C381   1.406       .  A
C381        C382   1.400       .  A
C381        F388   1.357       .  S
C382        C383   1.406       .  A
C382        H387   1.083       .  S
C383        C384   1.406   1_554  A
C384        F385   1.358       .  S
C389        C394   1.409       .  A
C389        C818   1.410       .  A
C389        H396   1.083       .  S
C390        C439   1.488       .  S
C390        C391   1.405   1_556  A
C390        C817   1.412       .  A
C391        C392   1.391       .  A
C391        F398   1.357       .  S
C392        C393   1.405   1_554  A
C392        H397   1.084       .  S
C393        C822   1.409       .  A
C394        C821   1.408       .  A
C394        F395   1.357       .  S
C399        C404   1.400       .  A
C399        C828   1.408   1_554  A
C399        H406   1.083       .  S
C400        C401   1.412       .  A
C400        C827   1.408       .  A
C401        C402   1.408       .  A
C401        F408   1.357       .  S
C402        C403   1.407       .  A
C402        H407   1.083       .  S
C403        C832   1.404       .  A
C404        C831   1.407   1_554  A
C404        F405   1.358       .  S
C409        C410   1.409       .  A
C409        C414   1.408       .  A
C409        H416   1.083       .  S
C410        C440   1.486       .  S
C410        C839   1.410       .  A
C411        C838   1.410   1_554  A
C411        C840   1.399       .  A
C411        F418   1.358       .  S
C412        C413   1.400       .  A
C412        C839   1.392       .  A
C412        H845   1.084       .  S
C413        C414   1.407       .  A
C414        F415   1.357       .  S
H417        C840   1.083       .  S
C419        C420   1.407       .  A
C419        C424   1.405       .  A
C419        H854   1.083       .  S
C420        C442   1.491       .  S
C420        C421   1.412       .  A
C421        C422   1.399       .  A
C421        F428   1.358       .  S
C422        C423   1.405       .  A
C422        H427   1.083       .  S
C423        C424   1.410       .  A
C424        F425   1.357       .  S
H426        C847   1.083       .  S
O429       Ni437   1.911       .  S
O430       Ni437   1.909       .  S
O430        C440   1.280       .  A
O431       Ni437   1.914       .  S
O432       Ni437   1.914       .  S
O432        C442   1.280       .  A
O433       Ni438   1.936       .  S
O434       Ni438   1.936       .  S
O434        C441   1.285       .  A
O435       Ni438   1.924       .  S
O436       Ni438   1.929       .  S
O436        C439   1.282       .  A
C441        C828   1.491       .  S
O443       Ni451   1.916   1_565  S
O443        C453   1.281       .  A
O444       Ni451   1.919   1_655  S
O444        C454   1.280       .  A
O445       Ni451   1.930   1_665  S
O445        C455   1.284       .  A
O446       Ni451   1.927       .  S
O446        C456   1.283       .  A
O447       Ni452   1.912   1_545  S
O448       Ni452   1.907   1_655  S
O449       Ni452   1.912   1_645  S
O450       Ni452   1.915       .  S
C453        C801   1.483       .  S
C454        C778   1.478       .  S
C455        C808   1.485       .  S
C456        C791   1.478       .  S
O457        C478   1.268       .  A
O458       Ni481   1.888       .  S
O458        C467   1.262       .  A
O459       Ni463   1.921       .  S
O459       Ni481   1.918       .  S
O459        H482   0.966       .  S
C460        O477   1.271       .  A
C460        O469   1.272       .  A
C460        C738   1.479       .  S
O461       Ni480   1.921       .  S
O461        C467   1.270       .  A
O462       Ni480   1.909       .  S
Ni463       O466   1.923       .  S
Ni463       O468   1.903       .  S
C464        O474   1.274       .  A
C464        C831   1.487       .  S
O465       Ni481   1.919       .  S
O465        C471   1.271       .  A
O466        C471   1.271       .  A
C467        C751   1.454       .  S
O468        C470   1.270       .  A
C470        O476   1.273       .  A
C470        C788   1.482       .  S
C471        C768   1.483       .  S
H472        O473   0.965       .  S
O473       Ni481   1.914       .  S
O473       Ni480   1.913       .  S
O474       Ni475   1.936       .  S
Ni475       O479   1.887       .  S
Ni475       O477   1.916       .  S
O476       Ni481   1.934       .  S
C478        O479   1.261       .  A
C478        C758   1.446       .  S
O483       Ni489   1.920       .  S
O483        C504   1.272       .  A
O484       Ni507   1.921       .  S
O484        C493   1.272       .  A
O485       Ni489   1.891       .  S
O485       Ni507   1.909       .  S
O485        H508   0.967       .  S
C486        O503   1.274       .  A
C486        O495   1.276       .  A
C486        C711   1.475       .  S
O487       Ni506   1.916       .  S
O488       Ni506   1.904       .  S
O488        C490   1.269       .  A
Ni489       O492   1.910       .  S
Ni489       O494   1.904       .  S
C490        O500   1.278       .  A
C490        C728   1.500       .  S
O491       Ni507   1.917       .  S
O491        C497   1.276       .  A
O492        C497   1.274       .  A
C493        C781   1.480       .  S
O494        C496   1.270       .  A
O495       Ni506   1.912       .  S
C496        O502   1.279       .  A
C496        C698   1.500       .  S
C497        C718   1.478       .  S
O499       Ni501   1.911       .  S
O499       Ni506   1.893       .  S
O500       Ni501   1.949       .  S
Ni501       O505   1.931       .  S
Ni501       O503   1.910       .  S
O502       Ni507   1.954       .  S
C504        C821   1.488       .  S
O509        C530   1.270       .  A
O510       Ni533   1.897       .  S
O510        C519   1.265       .  A
O511       Ni515   1.920       .  S
O511       Ni533   1.917       .  S
O511        H534   0.966       .  S
C512        O529   1.272       .  A
C512        O521   1.273       .  A
C512        C661   1.484       .  S
O513       Ni532   1.919       .  S
O513        C519   1.270       .  A
O514       Ni532   1.911       .  S
Ni515       O518   1.920       .  S
Ni515       O520   1.903       .  S
C516        O526   1.272       .  A
C516        C851   1.487       .  S
O517       Ni533   1.920       .  S
O517        C523   1.272       .  A
O518        C523   1.270       .  A
C519        C668   1.466       .  S
O520        C522   1.269       .  A
C522        O528   1.274       .  A
C522        C811   1.473       .  S
C523        C691   1.481       .  S
H524        O525   0.966       .  S
O525       Ni533   1.920       .  S
O525       Ni532   1.920       .  S
O526       Ni527   1.931       .  S
Ni527       O531   1.892       .  S
Ni527       O529   1.913       .  S
O528       Ni533   1.936       .  S
C530        O531   1.261       .  A
C530        C678   1.458       .  S
O535       Ni541   1.927       .  S
O535        C556   1.272       .  A
O536       Ni559   1.914       .  S
O536        C545   1.267       .  A
O537       Ni541   1.896       .  S
O537       Ni553   1.906       .  S
O537        H560   0.970       .  S
C538        O555   1.272       .  A
C538        O547   1.275       .  A
C538        C638   1.467       .  S
O539        C545   1.270       .  A
O540       Ni558   1.898       .  S
O540        C542   1.267       .  A
Ni541       O546   1.906       .  S
C542        O552   1.272       .  A
C542        C798   1.475       .  S
O543       Ni559   1.893       .  S
O543        C549   1.263       .  A
O544        C549   1.271       .  A
C545        C648   1.473       .  S
O547       Ni558   1.914       .  S
C548        O554   1.282       .  A
C548        C841   1.487       .  S
C549        C628   1.456       .  S
H550        O551   0.966       .  S
O551       Ni553   1.915       .  S
O551       Ni558   1.898       .  S
O552       Ni553   1.937       .  S
Ni553       O557   1.916       .  S
Ni553       O555   1.907       .  S
O554       Ni559   1.964       .  S
C556        O557   1.268       .  A
C556        C618   1.481       .  S
O561       Ni569   1.914       .  S
O561        C571   1.280       .  A
O562       Ni569   1.917   1_655  S
O562        C572   1.283       .  A
O563       Ni569   1.914   1_655  S
O563        C573   1.281       .  A
O564       Ni569   1.906       .  S
O564        C574   1.280       .  A
O565       Ni570   1.898   1_455  S
O565        C574   1.277       .  A
O566       Ni570   1.897       .  S
O566        C573   1.279       .  A
O567       Ni570   1.939       .  S
O567        C572   1.285       .  A
O568       Ni570   1.935   1_455  S
O568        C571   1.286       .  A
Ni569      Ni570   2.386   1_455  S
C571        C771   1.485       .  S
C572        C731   1.498       .  S
C573        C721   1.475       .  S
C574        C761   1.462       .  S
O575       Ni583   1.899   1_455  S
O575        C585   1.277       .  A
O576       Ni583   1.903       .  S
O576        C586   1.278       .  A
O577       Ni583   1.935       .  S
O577        C587   1.286       .  A
O578       Ni583   1.937   1_455  S
O578        C588   1.286       .  A
O579       Ni584   1.909   1_455  S
O579        C588   1.280       .  A
O580       Ni584   1.912       .  S
O580        C587   1.279       .  A
O581       Ni584   1.916       .  S
O581        C586   1.282       .  A
O582       Ni584   1.917   1_455  S
O582        C585   1.281       .  A
Ni583      Ni584   2.388       .  S
C585        C641   1.462       .  S
C586        C681   1.470       .  S
C587        C688   1.485       .  S
C588        C651   1.492       .  S
O589       Ni597   1.904       .  S
O589        C599   1.280       .  A
O590       Ni597   1.900       .  S
O590        C600   1.277       .  A
O591       Ni597   1.906       .  S
O591        C601   1.279       .  A
O592       Ni597   1.912       .  S
O592        C602   1.281       .  A
O593       Ni598   1.927       .  S
O593        C602   1.283       .  A
O594       Ni598   1.930       .  S
O594        C601   1.284       .  A
O595       Ni598   1.914       .  S
O595        C600   1.280       .  A
O596       Ni598   1.910       .  S
O596        C599   1.280       .  A
Ni597      Ni598   2.390       .  S
C599        C631   1.471       .  S
C600        C671   1.459       .  S
C601        C658   1.476       .  S
C602        C621   1.485       .  S
O603       Ni611   1.942       .  S
O603        C613   1.286       .  A
O604       Ni611   1.938       .  S
O604        C614   1.286       .  A
O605       Ni611   1.896       .  S
O605        C615   1.276       .  A
O606       Ni611   1.893       .  S
O606        C616   1.277       .  A
O607       Ni612   1.918       .  S
O607        C616   1.282       .  A
O608       Ni612   1.909       .  S
O608        C615   1.280       .  A
O609       Ni612   1.907       .  S
O609        C614   1.279       .  A
O610       Ni612   1.919       .  S
O610        C613   1.283       .  A
Ni611      Ni612   2.387       .  S
C613        C701   1.500       .  S
C614        C741   1.486       .  S
C615        C748   1.455       .  S
C616        C708   1.472       .  S
C617        C618   1.403       .  A
C617        C622   1.392       .  A
C617        H624   1.084       .  S
C618        C619   1.407       .  A
C619        C620   1.407       .  A
C619        F626   1.357       .  S
C620        C621   1.409       .  A
C620        H625   1.083       .  S
C621        C622   1.408       .  A
C622        F623   1.358       .  S
C627        C628   1.400       .  A
C627        C632   1.396       .  A
C627        H634   1.084       .  S
C628        C629   1.400       .  A
C629        C630   1.391       .  A
C629        F636   1.358       .  S
C630        C631   1.406       .  A
C630        H635   1.083       .  S
C631        C632   1.409       .  A
C632        F633   1.357       .  S
C637        C638   1.403       .  A
C637        C642   1.389       .  A
C637        H644   1.084       .  S
C638        C639   1.406       .  A
C639        C640   1.398       .  A
C639        F646   1.357       .  S
C640        C641   1.402       .  A
C640        H645   1.083       .  S
C641        C642   1.404       .  A
C642        F643   1.359       .  S
C647        C648   1.403       .  A
C647        C652   1.406       .  A
C647        H654   1.083       .  S
C648        C649   1.401       .  A
C649        C650   1.396       .  A
C649        F656   1.358       .  S
C650        C651   1.409       .  A
C650        H655   1.083       .  S
C651        C652   1.412       .  A
C652        F653   1.357       .  S
C657        C658   1.404       .  A
C657        C662   1.397       .  A
C657        H664   1.084       .  S
C658        C659   1.405       .  A
C659        C660   1.399       .  A
C659        F666   1.357       .  S
C660        C661   1.408       .  A
C660        H665   1.083       .  S
C661        C662   1.408       .  A
C662        F663   1.357       .  S
C667        C668   1.403       .  A
C667        C672   1.396       .  A
C667        H674   1.084       .  S
C668        C669   1.406       .  A
C669        C670   1.392       .  A
C669        F676   1.358       .  S
C670        C671   1.399       .  A
C670        H675   1.084       .  S
C671        C672   1.404       .  A
C672        F673   1.358       .  S
C677        C678   1.398       .  A
C677        C682   1.394       .  A
C677        H684   1.084       .  S
C678        C679   1.403       .  A
C679        C680   1.396       .  A
C679        F686   1.357       .  S
C680        C681   1.404       .  A
C680        H685   1.083       .  S
C681        C682   1.409       .  A
C682        F683   1.358       .  S
C687        C688   1.404       .  A
C687        C692   1.400       .  A
C687        H694   1.083       .  S
C688        C689   1.411       .  A
C689        C690   1.402       .  A
C689        F696   1.358       .  S
C690        C691   1.403       .  A
C690        H695   1.084       .  S
C691        C692   1.408       .  A
C692        F693   1.357       .  S
C697        C698   1.410       .  A
C697        C702   1.412       .  A
C697        H704   1.083       .  S
C698        C699   1.412       .  A
C699        C700   1.397       .  A
C699        F706   1.358       .  S
C700        C701   1.406       .  A
C700        H705   1.083       .  S
C701        C702   1.413       .  A
C702        F703   1.357       .  S
C707        C708   1.405       .  A
C707        C712   1.398       .  A
C707        H714   1.083       .  S
C708        C709   1.406       .  A
C709        C710   1.389       .  A
C709        F716   1.358       .  S
C710        C711   1.404       .  A
C710        H715   1.083       .  S
C711        C712   1.408       .  A
C712        F713   1.357       .  S
C717        C718   1.407       .  A
C717        C722   1.399       .  A
C717        H724   1.083       .  S
C718        C719   1.409       .  A
C719        C720   1.388       .  A
C719        F726   1.358       .  S
C720        C721   1.403       .  A
C720        H725   1.083       .  S
C721        C722   1.408       .  A
C722        F723   1.357       .  S
C727        C728   1.410       .  A
C727        C732   1.410       .  A
C727        H734   1.083       .  S
C728        C729   1.414       .  A
C729        C730   1.396       .  A
C729        F736   1.358       .  S
C730        C731   1.405       .  A
C730        H735   1.083       .  S
C731        C732   1.413       .  A
C732        F733   1.357       .  S
C737        C738   1.406       .  A
C737        C742   1.403       .  A
C737        H744   1.083       .  S
C738        C739   1.404       .  A
C739        C740   1.399       .  A
C739        F746   1.358       .  S
C740        C741   1.408       .  A
C740        H745   1.083       .  S
C741        C742   1.408       .  A
C742        F743   1.357       .  S
C747        C748   1.401       .  A
C747        C752   1.390       .  A
C747        H754   1.084       .  S
C748        C749   1.403       .  A
C749        C750   1.394       .  A
C749        F756   1.358       .  S
C750        C751   1.401       .  A
C750        H755   1.084       .  S
C751        C752   1.401       .  A
C752        F753   1.358       .  S
C757        C758   1.398       .  A
C757        C762   1.391       .  A
C757        H764   1.084       .  S
C758        C759   1.398       .  A
C759        C760   1.391       .  A
C759        F766   1.358       .  S
C760        C761   1.405       .  A
C760        H765   1.083       .  S
C761        C762   1.406       .  A
C762        F763   1.357       .  S
C767        C768   1.405       .  A
C767        C772   1.404       .  A
C767        H774   1.084       .  S
C768        C769   1.408       .  A
C769        C770   1.401       .  A
C769        F776   1.357       .  S
C770        C771   1.404       .  A
C770        H775   1.083       .  S
C771        C772   1.410       .  A
C772        F773   1.358       .  S
C777        C778   1.401       .  A
C777        C782   1.391       .  A
C777        H784   1.084       .  S
C778        C779   1.411       .  A
C779        C780   1.405       .  A
C779        F786   1.357       .  S
C780        C781   1.405       .  A
C780        H785   1.083       .  S
C781        C782   1.409       .  A
C782        F783   1.358       .  S
C787        C788   1.404       .  A
C787        C792   1.393       .  A
C787        H794   1.083       .  S
C788        C789   1.411       .  A
C789        C790   1.403       .  A
C789        F796   1.357       .  S
C790        C791   1.404       .  A
C790        H795   1.083       .  S
C791        C792   1.407       .  A
C792        F793   1.358       .  S
C797        C798   1.403       .  A
C797        C802   1.394       .  A
C797        H804   1.084       .  S
C798        C799   1.404       .  A
C799        C800   1.402       .  A
C799        F806   1.357       .  S
C800        C801   1.410       .  A
C800        H805   1.083       .  S
C801        C802   1.408       .  A
C802        F803   1.358       .  S
C807        C808   1.408       .  A
C807        C812   1.395       .  A
C807        H814   1.083       .  S
C808        C809   1.410       .  A
C809        C810   1.402       .  A
C809        F816   1.357       .  S
C810        C811   1.404       .  A
C810        H815   1.083       .  S
C811        C812   1.403       .  A
C812        F813   1.358       .  S
C817        C822   1.411       .  A
C817        H824   1.083       .  S
C818        C819   1.407       .  A
C819        C820   1.393       .  A
C819        F826   1.358       .  S
C820        C821   1.406       .  A
C820        H825   1.084       .  S
C822        F823   1.356       .  S
C827        C832   1.396       .  A
C827        H834   1.083       .  S
C828        C829   1.409       .  A
C829        C830   1.405       .  A
C829        F836   1.357       .  S
C830        C831   1.407       .  A
C830        H835   1.083       .  S
C832        F833   1.358       .  S
C837        C838   1.409       .  A
C837        C842   1.404       .  A
C837        H844   1.083       .  S
C839        F846   1.358       .  S
C840        C841   1.406   1_554  A
C841        C842   1.408       .  A
C842        F843   1.357       .  S
C847        C848   1.405       .  A
C847        C852   1.405       .  A
C848        C849   1.410   1_556  A
C849        C850   1.398       .  A
C849        F856   1.358       .  S
C850        C851   1.404   1_554  A
C850        H855   1.083       .  S
C851        C852   1.411       .  A
C852        F853   1.357       .  S
