geometry optimzed in LAMMPS
_audit_creation_date              2020-11-30 
_audit_creation_method            'lammps2cif' 
_symmetry_space_group_name_H-M    'P1' 
_symmetry_Int_Tables_number       1 
_symmetry_cell_setting            triclinic 
loop_ 
_symmetry_equiv_pos_as_xyz 
  x,y,z 
_cell_length_a                    38.44822891 
_cell_length_b                    37.83402457868204 
_cell_length_c                    26.857106845552966 
_cell_angle_alpha                 89.37447765758404 
_cell_angle_beta                  90.46092672380011 
_cell_angle_gamma                 89.69140873450719 
loop_ 
_atom_site_label 
_atom_site_type_symbol 
_atom_site_fract_x 
_atom_site_fract_y 
_atom_site_fract_z 
_atom_site_charge 
O1          O  0.40233087  0.63097655  0.42124136    -0.56800
C2          C  0.33886252  0.61187981  0.27329917     0.75800
O3          O  0.29365466  0.67584597  0.37617805    -0.58000
C4          C  0.38349782  0.61882154  0.45598445     0.75800
C5          C  0.37198070  0.72142384  0.35944446     0.78200
Cd6        Cd  0.35083401  0.64833436  0.36638403     1.37500
O7          O  0.36772009  0.60674556  0.29565822    -0.56800
O8          O  0.38362455  0.69929524  0.32853000    -0.55600
C9          C  0.27861900  0.64783352  0.39056153     0.78100
O10         O  0.35212753  0.70924832  0.39261562    -0.58000
O11         O  0.31935018  0.63520422  0.29124778    -0.56500
O12         O  0.35139895  0.61716558  0.44645049    -0.56500
O13         O  0.29775412  0.62075938  0.39678978    -0.55600
O14         O  0.38524701  0.65186581  0.67578573    -0.56800
C15         C  0.39220793  0.65765287  0.84374674     0.75800
O16         O  0.31434383  0.69651395  0.75855289    -0.58000
C17         C  0.38785740  0.61982219  0.66422562     0.75800
C18         C  0.28529855  0.61526741  0.76247337     0.78200
Cd19       Cd  0.35352649  0.64549655  0.75274841     1.37500
O20         O  0.38460329  0.62601124  0.83330438    -0.56800
O21         O  0.29471151  0.63307535  0.72486867    -0.55600
C22         C  0.33432306  0.71767524  0.73586996     0.78100
O23         O  0.30830929  0.60932491  0.79559032    -0.58000
O24         O  0.38437830  0.68063202  0.81134356    -0.56500
O25         O  0.37733074  0.59788357  0.69673800    -0.56500
O26         O  0.36177023  0.70470861  0.71775296    -0.55600
C27         C  0.42627015  0.71295136  0.95195919     0.87500
C28         C  0.40508049  0.69137740  0.99021105    -0.52800
C29         C  0.40249021  0.65600952  0.97993120     0.10400
C30         C  0.42251330  0.64499376  0.93312892     0.21300
C31         C  0.46165358  0.69348160  0.95387679    -0.53500
C32         C  0.45974405  0.65834144  0.94305377     0.10500
C33         C  0.41031662  0.70401064  0.90147623    -0.53000
C34         C  0.40824346  0.66899047  0.89114010     0.11100
H35         H  0.39448557  0.70224787  0.02405975     0.15600
H36         H  0.42089417  0.61638962  0.92466020     0.01300
H37         H  0.48605190  0.70602726  0.96368827     0.15900
H38         H  0.40094773  0.72443204  0.87583294     0.15700
C39         C  0.28011622  0.55813166  0.18718747     0.87500
C40         C  0.29472917  0.57465037  0.13908274    -0.52800
C41         C  0.32931253  0.58337272  0.14028355     0.10400
C42         C  0.34693281  0.57240578  0.19071455     0.21300
C43         C  0.30357069  0.52524669  0.19393076    -0.53500
C44         C  0.33838305  0.53272957  0.19628862     0.10500
C45         C  0.29117306  0.58261559  0.22931833    -0.53000
C46         C  0.32564106  0.59025075  0.23163633     0.11100
H47         H  0.27877892  0.57705343  0.10582284     0.15600
H48         H  0.37500491  0.57859272  0.19366784     0.01300
H49         H  0.29482206  0.49824606  0.19131517     0.15900
H50         H  0.27273580  0.59259907  0.25632214     0.15700
C51         C  0.47618957  0.37162215  0.16974068     0.87500
C52         C  0.49985140  0.38085871  0.21378810    -0.52800
C53         C  0.50593815  0.41601634  0.22004264     0.10400
C54         C  0.48876872  0.43938820  0.17901685     0.21300
C55         C  0.44360641  0.39431171  0.17588817    -0.53500
C56         C  0.44975608  0.42952999  0.18046698     0.10500
C57         C  0.49570732  0.38817532  0.12528397    -0.53000
C58         C  0.50198293  0.42370092  0.12928388     0.11100
H59         H  0.51077413  0.36074165  0.23857314     0.15600
H60         H  0.49364167  0.46811653  0.18307556     0.01300
H61         H  0.41758048  0.38326001  0.17681291     0.15900
H62         H  0.50578565  0.37314109  0.09440512     0.15700
C63         C  0.62844706  0.52767847  0.93126853     0.87500
C64         C  0.61445359  0.51567317  0.88048995    -0.52800
C65         C  0.58018939  0.50722691  0.87860091     0.10400
C66         C  0.56112811  0.51576370  0.92753667     0.21300
C67         C  0.60580564  0.56079759  0.94025057    -0.53500
C68         C  0.57070654  0.55459610  0.93793388     0.10500
C69         C  0.61554685  0.49991808  0.96909692    -0.53000
C70         C  0.58026687  0.49469772  0.96939991     0.11100
H71         H  0.62955501  0.51616868  0.84670283     0.15600
H72         H  0.53262441  0.51148840  0.92572106     0.01300
H73         H  0.61632253  0.58713228  0.94493237     0.15900
H74         H  0.63322112  0.48647440  0.99477027     0.15700
O75         O  0.60710029  0.38904809  0.37025287    -0.56800
C76         C  0.63445423  0.47132470  0.32725875     0.75800
O77         O  0.54170570  0.40443052  0.29048967    -0.58000
C78         C  0.58338290  0.36929976  0.38698985     0.75800
C79         C  0.54236213  0.46767510  0.44427283     0.78200
Cd80       Cd  0.56889258  0.44011353  0.35184341     1.37500
O81         O  0.62659525  0.44004220  0.31592012    -0.56800
O82         O  0.52167508  0.46072409  0.40874643    -0.55600
C83         C  0.52702967  0.42755278  0.26347775     0.78100
O84         O  0.57439311  0.46541946  0.43478111    -0.58000
O85         O  0.61024183  0.49036187  0.34458406    -0.56500
O86         O  0.55364268  0.38336281  0.39099700    -0.56500
O87         O  0.53127734  0.45941206  0.27662050    -0.55600
O88         O  0.53836398  0.47178967  0.83170632    -0.56800
C89         C  0.53421452  0.46034826  0.65564679     0.75800
O90         O  0.61495215  0.41639338  0.78451922    -0.58000
C91         C  0.56689927  0.48835727  0.83383964     0.75800
C92         C  0.52842337  0.37090745  0.78547071     0.78200
Cd93       Cd  0.55788834  0.43742462  0.75481962     1.37500
O94         O  0.53164224  0.42882594  0.67114802    -0.56800
O95         O  0.50832635  0.39735941  0.77887253    -0.55600
C96         C  0.62975148  0.41734588  0.74272775     0.78100
O97         O  0.56048610  0.37623140  0.77954522    -0.58000
O98         O  0.54450848  0.48230104  0.68774001    -0.56500
O99         O  0.58637103  0.48519358  0.79652894    -0.56500
O100        O  0.61082731  0.42616357  0.70580966    -0.55600
O101        O  0.35835033  0.99131146  0.43205265    -0.56800
C102        C  0.33160265  0.98318779  0.27935452     0.75800
O103        O  0.33882453  0.88123906  0.38632160    -0.58000
C104        C  0.37408852  0.97079387  0.46227919     0.75800
C105        C  0.27043396  0.94218904  0.40483577     0.78200
Cd106      Cd  0.34142557  0.94423752  0.37240511     1.37500
O107        O  0.36220455  0.98155933  0.29742924    -0.56800
O108        O  0.29053205  0.96708899  0.41690743    -0.55600
C109        C  0.36440497  0.87244614  0.35987545     0.78100
O110        O  0.28372747  0.91744318  0.37988111    -0.58000
O111        O  0.30878000  0.96609180  0.30267257    -0.56500
O112        O  0.37916293  0.93979982  0.44680142    -0.56500
O113        O  0.37994860  0.89717002  0.33685582    -0.55600
O114        O  0.37359116  0.96139288  0.83841799    -0.56800
C115        C  0.36589352  0.97174067  0.67236961     0.75800
O116        O  0.30463060  0.88720785  0.76612109    -0.58000
C117        C  0.37584442  0.92960326  0.85403056     0.75800
C118        C  0.26806945  0.97433227  0.77466038     0.78200
Cd119      Cd  0.33605551  0.94289775  0.76319186     1.37500
O120        O  0.33416263  0.97451292  0.68327400    -0.56800
O121        O  0.29342231  0.98669480  0.79951530    -0.55600
C122        C  0.32622879  0.86992333  0.74059690     0.78100
O123        O  0.27454582  0.94808238  0.74758036    -0.58000
O124        O  0.38539424  0.95888108  0.70625642    -0.56500
O125        O  0.35916528  0.90715128  0.82932933    -0.56500
O126        O  0.35094303  0.88725170  0.72153312    -0.55600
C127        C  0.27686927  0.03129067  0.17958583     0.87500
C128        C  0.28636694  0.01135689  0.22764193    -0.52800
C129        C  0.32082613  0.00428978  0.23475279     0.10400
C130        C  0.34388288  0.02005691  0.19314689     0.21300
C131        C  0.29871630  0.06553060  0.18447555    -0.53500
C132        C  0.33375490  0.05950510  0.19088914     0.10500
C133        C  0.29449174  0.01074785  0.13797651    -0.53000
C134        C  0.32932863  0.00515078  0.14364774     0.11100
H135        H  0.26670009  0.00314880  0.25416231     0.15600
H136        H  0.37219537  0.01570536  0.19890295     0.01300
H137        H  0.28846292  0.09214600  0.18571250     0.15900
H138        H  0.27978249  0.00059310  0.10656691     0.15700
C139        C  0.42400960  0.87139460  0.94993273     0.87500
C140        C  0.40270773  0.88194088  0.90400703    -0.52800
C141        C  0.39696479  0.91722412  0.89754962     0.10400
C142        C  0.41399604  0.93972281  0.93865315     0.21300
C143        C  0.45786913  0.89308728  0.94631360    -0.53500
C144        C  0.45262083  0.92863481  0.93934914     0.10500
C145        C  0.40553414  0.88903603  0.99384452    -0.53000
C146        C  0.40012027  0.92463288  0.98863545     0.11100
H147        H  0.39270907  0.86231557  0.87837550     0.15600
H148        H  0.41011465  0.96864501  0.93368328     0.01300
H149        H  0.48373073  0.88214155  0.95172410     0.15900
H150        H  0.39752543  0.87434545  0.02664557     0.15700
C151        C  0.62008195  0.05710652  0.94443889     0.87500
C152        C  0.60501413  0.07740756  0.98906926    -0.52800
C153        C  0.57047645  0.08646727  0.98450709     0.10400
C154        C  0.55412954  0.07450576  0.93451727     0.21300
C155        C  0.59593230  0.02563359  0.93773659    -0.53500
C156        C  0.56164647  0.03430991  0.93322098     0.10500
C157        C  0.61198503  0.08222661  0.90061548    -0.53000
C158        C  0.57777146  0.09087549  0.89417898     0.11100
H159        H  0.62022871  0.08546843  0.02102534     0.15600
H160        H  0.52626383  0.08166412  0.92980775     0.01300
H161        H  0.60513033  0.99839835  0.93845781     0.15900
H162        H  0.63211641  0.09228754  0.87612490     0.15700
C163        C  0.47618917  0.21685731  0.17948238     0.87500
C164        C  0.49699069  0.19806086  0.13854640    -0.52800
C165        C  0.50175254  0.16245271  0.14599901     0.10400
C166        C  0.48548112  0.14882882  0.19524731     0.21300
C167        C  0.44248905  0.19607530  0.18425481    -0.53500
C168        C  0.44691024  0.16073769  0.19197316     0.10500
C169        C  0.49744900  0.20763558  0.22636413    -0.53000
C170        C  0.50175145  0.17235211  0.23577886     0.11100
H171        H  0.50857961  0.21156547  0.10711984     0.15600
H172        H  0.48924264  0.12010599  0.20236039     0.01300
H173        H  0.41698064  0.20836633  0.18103192     0.15900
H174        H  0.50856524  0.22776397  0.25013333     0.15700
O175        O  0.57138495  0.12295078  0.45309889    -0.56800
C176        C  0.52139399  0.16053786  0.28069626     0.75800
O177        O  0.60365533  0.19565082  0.38636135    -0.58000
C178        C  0.53957682  0.11873645  0.46277207     0.75800
C179        C  0.62623280  0.11494265  0.33181753     0.78200
Cd180      Cd  0.56372799  0.14666897  0.36841064     1.37500
O181        O  0.52680089  0.12850763  0.29314031    -0.56800
O182        O  0.62071524  0.14782371  0.33312295    -0.55600
C183        C  0.58003958  0.21775672  0.39666096     0.78100
O184        O  0.60167227  0.09515541  0.34628330    -0.58000
O185        O  0.53403881  0.18341456  0.30920480    -0.56500
O186        O  0.51848150  0.12420715  0.42699421    -0.56500
O187        O  0.54931741  0.20597569  0.39831148    -0.55600
O188        O  0.54133936  0.10644928  0.70569324    -0.56800
C189        C  0.56709334  0.11389272  0.85145383     0.75800
O190        O  0.60642341  0.19460945  0.75616686    -0.58000
C191        C  0.52688944  0.12558333  0.67254121     0.75800
C192        C  0.52283906  0.22316735  0.78406132     0.78200
Cd193      Cd  0.55485285  0.15635553  0.76221712     1.37500
O194        O  0.58998489  0.13095216  0.82795124    -0.56800
O195        O  0.51906511  0.19725749  0.81388229    -0.55600
C196        C  0.62519395  0.17319131  0.73240882     0.78100
O197        O  0.53858711  0.21710084  0.74399701    -0.58000
O198        O  0.53610432  0.11693702  0.83508651    -0.56500
O199        O  0.52035678  0.15696446  0.68502815    -0.56500
O200        O  0.61093274  0.14422335  0.72158154    -0.55600
O201        O  0.03609472  0.66001522  0.43883009    -0.56800
C202        C  0.06810621  0.60899585  0.26614211     0.75800
O203        O  0.06307963  0.71143657  0.33348619    -0.58000
C204        C  0.02721683  0.62874771  0.44941747     0.75800
C205        C  0.12801540  0.64928749  0.38651101     0.78200
Cd206      Cd  0.05654434  0.65003402  0.35475558     1.37500
O207        O  0.03708005  0.61129648  0.28176965    -0.56800
O208        O  0.10875377  0.62240349  0.39058506    -0.55600
C209        C  0.03184386  0.71864507  0.32244012     0.78100
O210        O  0.11322798  0.67754123  0.37167860    -0.58000
O211        O  0.09061265  0.62605322  0.29000467    -0.56500
O212        O  0.02868963  0.60670495  0.41423396    -0.56500
O213        O  0.01034307  0.69339341  0.32566622    -0.55600
O214        O  0.04869340  0.65684971  0.66333909    -0.56800
C215        C  0.02804681  0.66212377  0.83571476     0.75800
O216        O  0.12847601  0.63367663  0.71965665    -0.58000
C217        C  0.03644754  0.62646810  0.65688595     0.75800
C218        C  0.08631280  0.72378784  0.72853360     0.78200
Cd219      Cd  0.07032586  0.65072785  0.74712551     1.37500
O220        O  0.04183157  0.68593550  0.80948827    -0.56800
O221        O  0.05814853  0.70985348  0.71423149    -0.55600
C222        C  0.13817569  0.61785732  0.75903232     0.78100
O223        O  0.10803380  0.70335835  0.75021895    -0.58000
O224        O  0.03317438  0.63067872  0.82148899    -0.56500
O225        O  0.03846248  0.60535979  0.69385564    -0.56500
O226        O  0.11559701  0.61518049  0.79288698    -0.55600
C227        C  0.97561851  0.71401170  0.93200820     0.87500
C228        C  0.99979112  0.70688783  0.88811215    -0.52800
C229        C  0.00681416  0.67215108  0.87949119     0.10400
C230        C  0.99044242  0.64702346  0.91843553     0.21300
C231        C  0.94380420  0.69090222  0.92321967    -0.53500
C232        C  0.95094956  0.65584115  0.91737699     0.10500
C233        C  0.99517865  0.69608760  0.97596131    -0.53000
C234        C  0.00329875  0.66102942  0.96967910     0.11100
H235        H  0.01036115  0.72799526  0.86517097     0.15600
H236        H  0.99677427  0.61896764  0.91126622     0.01300
H237        H  0.91739751  0.70130104  0.92412681     0.15900
H238        H  0.00271698  0.70988266  0.00923714     0.15700
C239        C  0.12390100  0.55717651  0.17433863     0.87500
C240        C  0.11418002  0.58042958  0.21820374    -0.52800
C241        C  0.07959167  0.58698234  0.22396855     0.10400
C242        C  0.05668564  0.56921734  0.18427631     0.21300
C243        C  0.10183941  0.52344768  0.18090338    -0.53500
C244        C  0.06697504  0.52964506  0.18716482     0.10500
C245        C  0.10620599  0.57499710  0.12849756    -0.53000
C246        C  0.07142211  0.58218054  0.13380487     0.11100
H247        H  0.13377939  0.59082329  0.24333488     0.15600
H248        H  0.02839156  0.57441543  0.18857624     0.01300
H249        H  0.11168388  0.49730514  0.17745945     0.15900
H250        H  0.11972137  0.58118153  0.09427769     0.15700
C251        C  0.92695552  0.36828255  0.18515479     0.87500
C252        C  0.90489614  0.38918233  0.14688728    -0.52800
C253        C  0.90018324  0.42434618  0.15646452     0.10400
C254        C  0.91892277  0.43579666  0.20496434     0.21300
C255        C  0.96142201  0.38892216  0.18792586    -0.53500
C256        C  0.95732364  0.42434471  0.19733110     0.10500
C257        C  0.91140179  0.37608887  0.23626430    -0.53000
C258        C  0.90572499  0.41079847  0.24630817     0.11100
H259        H  0.89503760  0.37688804  0.11329258     0.15600
H260        H  0.91520649  0.46400096  0.21430881     0.01300
H261        H  0.98706326  0.37732502  0.18525965     0.15900
H262        H  0.90496916  0.35516656  0.26262117     0.15700
C263        C  0.78312345  0.52768046  0.94570251     0.87500
C264        C  0.79819968  0.51706678  0.99713813    -0.52800
C265        C  0.83300988  0.50834833  0.99699509     0.10400
C266        C  0.85000995  0.51237645  0.94494579     0.21300
C267        C  0.80619938  0.55803971  0.92752376    -0.53500
C268        C  0.84104681  0.55049242  0.92795934     0.10500
C269        C  0.79337446  0.49550943  0.91426016    -0.53000
C270        C  0.82796771  0.48859689  0.91106014     0.11100
H271        H  0.78226058  0.51283755  0.02984946     0.15600
H272        H  0.87825052  0.50607239  0.94457299     0.01300
H273        H  0.79596217  0.58407983  0.91801276     0.15900
H274        H  0.77444526  0.47919232  0.89519623     0.15700
O275        O  0.88863487  0.44689626  0.44159471    -0.56800
C276        C  0.88682845  0.42052619  0.29228804     0.75800
O277        O  0.80122245  0.37969641  0.38596194    -0.58000
C278        C  0.86750516  0.44979084  0.47732361     0.75800
C279        C  0.77982605  0.46460019  0.34709126     0.78200
Cd280      Cd  0.84282414  0.42908124  0.37889675     1.37500
O281        O  0.87813488  0.39647795  0.32243228    -0.56800
O282        O  0.80302716  0.48146970  0.37071146    -0.55600
C283        C  0.82376583  0.35708710  0.39967124     0.78100
O284        O  0.78714192  0.43311092  0.33581286    -0.58000
O285        O  0.87720598  0.45162213  0.30321557    -0.56500
O286        O  0.83573964  0.44602342  0.46644785    -0.56500
O287        O  0.85425531  0.36847899  0.40644523    -0.55600
O288        O  0.86706549  0.46412890  0.72189842    -0.56800
C289        C  0.83989202  0.46286142  0.87336470     0.75800
O290        O  0.79861437  0.38313336  0.76299801    -0.58000
C291        C  0.87590752  0.44184862  0.68940510     0.75800
C292        C  0.88000250  0.35272247  0.82009773     0.78200
Cd293      Cd  0.84987320  0.41880159  0.78657667     1.37500
O294        O  0.86939321  0.46353717  0.85249451    -0.56800
O295        O  0.89974160  0.37842914  0.80925640    -0.55600
C296        C  0.77900560  0.40933882  0.75344905     0.78100
O297        O  0.84768156  0.35879528  0.81818423    -0.58000
O298        O  0.81856599  0.44064215  0.85671737    -0.56500
O299        O  0.87601467  0.40996554  0.70393649    -0.56500
O300        O  0.79281089  0.43949204  0.75670926    -0.55600
O301        O  0.82983707  0.11154910  0.43877236    -0.56800
C302        C  0.87807645  0.15139641  0.26815526     0.75800
O303        O  0.79392768  0.08790817  0.33925254    -0.58000
C304        C  0.86178710  0.11010118  0.44987036     0.75800
C305        C  0.82064911  0.20644466  0.38927753     0.78200
Cd306      Cd  0.83632057  0.13669405  0.35524610     1.37500
O307        O  0.86878391  0.17331553  0.30045771    -0.56800
O308        O  0.85098674  0.19351708  0.39197908    -0.55600
C309        C  0.77080447  0.10904352  0.32228688     0.78100
O310        O  0.79699099  0.18616932  0.37376019    -0.62800
O311        O  0.86958849  0.11945578  0.27627064    -0.56500
O312        O  0.88276947  0.11581347  0.41457258    -0.56500
O313        O  0.77956247  0.14105115  0.31790879    -0.55600
O314        O  0.86393360  0.10389060  0.69559947    -0.56800
C315        C  0.82528307  0.10396835  0.83824993     0.75800
O316        O  0.84343850  0.20435422  0.79827883    -0.58000
C317        C  0.86905116  0.12548658  0.66001285     0.75800
C318        C  0.77334624  0.17203478  0.72186992     0.78200
Cd319      Cd  0.84158507  0.14950742  0.75422301     1.37500
O320        O  0.80329584  0.11546574  0.80693700    -0.56800
O321        O  0.78448508  0.14093374  0.71521214    -0.55600
C322        C  0.87591801  0.20905834  0.79813834     0.78100
O323        O  0.79499580  0.19356228  0.73992200    -0.58000
O324        O  0.85681984  0.11134393  0.82963908    -0.56500
O325        O  0.86515082  0.15782041  0.67008199    -0.56500
O326        O  0.89409290  0.18515083  0.77794483    -0.55600
C327        C  0.12168862  0.02527240  0.17346022     0.87500
C328        C  0.10514251  0.00450881  0.13054844    -0.52800
C329        C  0.07027697  0.99812255  0.13466342     0.10400
C330        C  0.05500426  0.01241948  0.18389007     0.21300
C331        C  0.09869004  0.05876690  0.17848845    -0.53500
C332        C  0.06393653  0.05192450  0.18296172     0.10500
C333        C  0.11245100  0.00430829  0.22064941    -0.53000
C334        C  0.07803780  0.99678934  0.22619868     0.11100
H335        H  0.12049636  0.99508629  0.09957836     0.15600
H336        H  0.02675878  0.00783078  0.18859463     0.01300
H337        H  0.10797199  0.08552258  0.18139510     0.15900
H338        H  0.13199714  0.99621982  0.24793324     0.15700
C339        C  0.97131952  0.86924290  0.93789347     0.87500
C340        C  0.98976958  0.88734382  0.98223341    -0.52800
C341        C  0.99314184  0.92337836  0.97736914     0.10400
C342        C  0.97846922  0.93789468  0.92702842     0.21300
C343        C  0.93707037  0.88938379  0.93081479    -0.53500
C344        C  0.94048344  0.92496561  0.92560897     0.10500
C345        C  0.99414007  0.88053725  0.89394481    -0.53000
C346        C  0.99732559  0.91612722  0.88691424     0.11100
H347        H  0.00145607  0.87317169  0.01343700     0.15600
H348        H  0.98083518  0.96695549  0.92218963     0.01300
H349        H  0.91189667  0.87641226  0.93055488     0.15900
H350        H  0.00663020  0.86155877  0.86976359     0.15700
C351        C  0.77133253  0.05347521  0.93566182     0.87500
C352        C  0.77917797  0.07687735  0.88991048    -0.52800
C353        C  0.81363581  0.08333495  0.88216165     0.10400
C354        C  0.83749591  0.06741700  0.92292789     0.21300
C355        C  0.79415556  0.02064823  0.92981458    -0.53500
C356        C  0.82859727  0.02771786  0.92359150     0.10500
C357        C  0.78830454  0.07429369  0.97844085    -0.53000
C358        C  0.82287094  0.08167481  0.97240455     0.11100
H359        H  0.75895174  0.08760871  0.86552393     0.15600
H360        H  0.86545657  0.07311704  0.91707922     0.01300
H361        H  0.78398845  0.99392040  0.93140493     0.15900
H362        H  0.77413100  0.08389008  0.01029707     0.15700
C363        C  0.92100919  0.21105457  0.16998531     0.87500
C364        C  0.90321230  0.19964913  0.21843172    -0.52800
C365        C  0.89707811  0.16440768  0.22371786     0.10400
C366        C  0.91168407  0.14250694  0.18052286     0.21300
C367        C  0.95506437  0.18946023  0.17293372    -0.53500
C368        C  0.95032806  0.15373408  0.17784510     0.10500
C369        C  0.89997969  0.19402542  0.12770764    -0.53000
C370        C  0.89478860  0.15831959  0.13246117     0.11100
H371        H  0.89632174  0.21844040  0.24706030     0.15600
H372        H  0.90771038  0.11367210  0.18559622     0.01300
H373        H  0.98085848  0.20070905  0.17441865     0.15900
H374        H  0.89077958  0.20922394  0.09566015     0.15700
O375        O  0.02611804  0.92673156  0.44175503    -0.56800
C376        C  0.06656435  0.97611832  0.27035212     0.75800
O377        O  0.10952337  0.90947208  0.38355341    -0.58000
C378        C  0.01953966  0.95879921  0.45080249     0.75800
C379        C  0.03076042  0.86668276  0.32879166     0.78200
Cd380      Cd  0.05284196  0.93573711  0.36056441     1.37500
O381        O  0.03524446  0.97321776  0.28441904    -0.56800
O382        O  0.00849546  0.89146218  0.33159256    -0.55600
C383        C  0.12164290  0.93741429  0.40245519     0.78100
O384        O  0.06164264  0.87422383  0.34088737    -0.58000
O385        O  0.08904397  0.96053333  0.29707674    -0.56500
O386        O  0.02423010  0.98051955  0.41521369    -0.56500
O387        O  0.10076029  0.96320444  0.40542760    -0.55600
O388        O  0.03283931  0.99017971  0.69049298    -0.56800
C389        C  0.01762751  0.92968153  0.84397887     0.75800
O390        O  0.09913651  0.89724635  0.74846363    -0.58000
C391        C  0.02213266  0.96670351  0.66075689     0.75800
C392        C  0.12241641  0.98129503  0.76480877     0.78200
Cd393      Cd  0.05632234  0.94554059  0.75357660     1.37500
O394        O  0.04017992  0.91001782  0.82461887    -0.56800
O395        O  0.09821045  0.98762303  0.79532289    -0.55600
C396        C  0.07780243  0.87491858  0.73142134     0.78100
O397        O  0.11482623  0.96082538  0.72958289    -0.58000
O398        O  0.01313820  0.95970376  0.82325915    -0.56500
O399        O  0.02396480  0.93538547  0.67695117    -0.56500
O400        O  0.04711688  0.88586893  0.72318233    -0.55600
C401        C  0.01000894  0.96969712  0.50223188    -0.04400
C402        C  0.98823359  0.94778360  0.53104799    -0.01500
C403        C  0.98874505  0.94983390  0.58350694     0.03500
C404        C  0.01122911  0.97381815  0.60784619    -0.04400
C405        C  0.02878885  0.99943846  0.57866123    -0.01500
C406        C  0.02823563  0.99733005  0.52600003     0.03500
C407        C  0.96636203  0.92194556  0.50664383     0.38200
C408        C  0.05018556  0.02594670  0.60243984     0.38100
C409        C  0.04930260  0.02151066  0.49690895     0.36600
C410        C  0.96728790  0.92588677  0.61238598     0.36600
N411        N  0.06621192  0.04085016  0.47395491    -0.38200
N412        N  0.95026140  0.90660128  0.63523874    -0.38200
N413        N  0.06729729  0.04708970  0.62134776    -0.37700
N414        N  0.94898457  0.90136111  0.48703151    -0.37700
C415        C  0.84295514  0.10239391  0.01067960    -0.04400
C416        C  0.87471460  0.08960133  0.03101847    -0.01500
C417        C  0.89056665  0.10644134  0.07227269     0.03500
C418        C  0.87592407  0.13756814  0.09261845    -0.04400
C419        C  0.84424020  0.15048511  0.07162329    -0.01500
C420        C  0.82852200  0.13369758  0.03045919     0.03500
C421        C  0.89202707  0.05933179  0.00954763     0.38200
C422        C  0.82614023  0.18010462  0.09350095     0.38100
C423        C  0.79780676  0.14964299  0.00740247     0.36600
C424        C  0.92169544  0.09054630  0.09362799     0.36600
N425        N  0.77326960  0.16227616  0.98920713    -0.38200
N426        N  0.94583324  0.07586651  0.10966298    -0.38200
N427        N  0.81040739  0.20345216  0.10945306    -0.37700
N428        N  0.90753995  0.03597362  0.99313584    -0.37700
C429        C  0.85522379  0.99925160  0.92178230    -0.04400
C430        C  0.87656477  0.99549014  0.87966359    -0.01500
C431        C  0.90387176  0.97041896  0.88021151     0.03500
C432        C  0.90977340  0.94897408  0.92276053    -0.04400
C433        C  0.88596269  0.95016403  0.96256623    -0.01500
C434        C  0.85934877  0.97577901  0.96266960     0.03500
C435        C  0.86931992  0.01602295  0.83484010     0.38200
C436        C  0.88762031  0.92421628  0.00261466     0.38100
C437        C  0.83730280  0.97896335  0.00608066     0.36600
C438        C  0.92380711  0.96451800  0.83546131     0.36600
N439        N  0.81984949  0.98146514  0.04078016    -0.38200
N440        N  0.93884185  0.95943760  0.79906218    -0.38200
N441        N  0.88747389  0.90284442  0.03372988    -0.37700
N442        N  0.86347168  0.03183956  0.79858420    -0.37700
C443        C  0.03673596  0.08011275  0.18394217    -0.04400
C444        C  0.03183347  0.10264070  0.14216394    -0.01500
C445        C  0.00358675  0.12650177  0.14027945     0.03500
C446        C  0.98035185  0.12868919  0.18065897    -0.04400
C447        C  0.98625354  0.10745092  0.22348417    -0.01500
C448        C  0.01426208  0.08314781  0.22503018     0.03500
C449        C  0.05536786  0.10096625  0.10035648     0.38200
C450        C  0.96453199  0.11143724  0.26694847     0.38100
C451        C  0.02083925  0.06265830  0.27008669     0.36600
C452        C  0.99709447  0.14703686  0.09515110     0.36600
N453        N  0.02574026  0.04712051  0.30684123    -0.38200
N454        N  0.99179941  0.16297032  0.05883403    -0.38200
N455        N  0.94791017  0.11428897  0.30241665    -0.37700
N456        N  0.07411556  0.10039789  0.06691462    -0.37700
C457        C  0.04936360  0.98040739  0.09392503    -0.04400
C458        C  0.02304984  0.95579052  0.10574149    -0.01500
C459        C  0.00247680  0.94061072  0.06779896     0.03500
C460        C  0.01088226  0.94524752  0.01688286    -0.04400
C461        C  0.03768594  0.96923723  0.00478214    -0.01500
C462        C  0.05543698  0.98796636  0.04264121     0.03500
C463        C  0.01787284  0.94392444  0.15666564     0.38200
C464        C  0.04831431  0.97426983  0.95356396     0.38100
C465        C  0.07981219  0.01517968  0.02773340     0.36600
C466        C  0.97123845  0.92217533  0.08227290     0.36600
N467        N  0.09947802  0.03640271  0.01492684    -0.38200
N468        N  0.94628240  0.90884633  0.09684769    -0.38200
N469        N  0.05773644  0.97909392  0.91327561    -0.37700
N470        N  0.01310557  0.93353907  0.19669920    -0.37700
C471        C  0.87300599  0.10590270  0.50286858    -0.04400
C472        C  0.89570245  0.13098190  0.52421685    -0.01500
C473        C  0.89739267  0.13482736  0.57649856     0.03500
C474        C  0.87601755  0.11409976  0.60785245    -0.04400
C475        C  0.85658425  0.08622730  0.58666822    -0.01500
C476        C  0.85536964  0.08204888  0.53444420     0.03500
C477        C  0.91486542  0.15519697  0.49251993     0.38200
C478        C  0.83522853  0.06371203  0.61784654     0.38100
C479        C  0.83481780  0.05393761  0.51290240     0.36600
C480        C  0.92042905  0.16094784  0.59791650     0.36600
N481        N  0.81856148  0.03145365  0.49562390    -0.38200
N482        N  0.93895634  0.18169918  0.61486118    -0.38200
N483        N  0.81803969  0.04577872  0.64255430    -0.37700
N484        N  0.92992187  0.17470926  0.46726963    -0.37700
C485        C  0.89266328  0.31614441  0.83029878    -0.04400
C486        C  0.91544943  0.29966984  0.79653934    -0.01500
C487        C  0.91411131  0.26264695  0.79017155     0.03500
C488        C  0.89032641  0.24241178  0.81822081    -0.04400
C489        C  0.87391429  0.25804134  0.85945752    -0.01500
C490        C  0.87488442  0.29496263  0.86529251     0.03500
C491        C  0.93793146  0.32088398  0.76536145     0.38200
C492        C  0.85441667  0.23627708  0.89413267     0.38100
C493        C  0.85612775  0.31135176  0.90568958     0.36600
C494        C  0.93470716  0.24616561  0.75177256     0.36600
N495        N  0.84126808  0.32428479  0.93813636    -0.38200
N496        N  0.95130002  0.23310119  0.72119842    -0.38200
N497        N  0.83897576  0.21879935  0.92173668    -0.37700
N498        N  0.95621099  0.33771537  0.74079005    -0.37700
C499        C  0.81589975  0.31881808  0.40478547    -0.04400
C500        C  0.79400195  0.30207338  0.36964923    -0.01500
C501        C  0.79328893  0.26487800  0.36710721     0.03500
C502        C  0.81413612  0.24423203  0.40003520    -0.04400
C503        C  0.83259057  0.26087894  0.43883902    -0.01500
C504        C  0.83371590  0.29802824  0.44098852     0.03500
C505        C  0.77425326  0.32277158  0.33328785     0.38200
C506        C  0.85060082  0.23983707  0.47658927     0.38100
C507        C  0.85378578  0.31479601  0.48010697     0.36600
C508        C  0.77332582  0.24818286  0.32775150     0.36600
N509        N  0.86988608  0.32815489  0.51118451    -0.38200
N510        N  0.75752122  0.23484768  0.29633406    -0.38200
N511        N  0.86480223  0.22334175  0.50714319    -0.37700
N512        N  0.75839278  0.33900853  0.30414095    -0.37700
C513        C  0.88284529  0.45140045  0.63588362    -0.04400
C514        C  0.86447271  0.47948893  0.61188451    -0.01500
C515        C  0.86189483  0.48085277  0.55926588     0.03500
C516        C  0.87857527  0.45509356  0.53012453    -0.04400
C517        C  0.90169394  0.43094576  0.55367246    -0.01500
C518        C  0.90367917  0.42898483  0.60628092     0.03500
C519        C  0.84714343  0.50640522  0.64077183     0.38200
C520        C  0.92207346  0.40673593  0.52404876     0.38100
C521        C  0.92715782  0.40365852  0.62982496     0.36600
C522        C  0.84186971  0.50870847  0.53478504     0.36600
N523        N  0.94612459  0.38354013  0.64833377    -0.38200
N524        N  0.82617564  0.53101696  0.51497247    -0.38200
N525        N  0.93862658  0.38751911  0.50066227    -0.37700
N526        N  0.83359765  0.52828577  0.66347067    -0.37700
C527        C  0.92581888  0.32791169  0.17363968    -0.04400
C528        C  0.89408204  0.30931912  0.18157702    -0.01500
C529        C  0.89224482  0.27237636  0.17620944     0.03500
C530        C  0.92231840  0.25211773  0.16468382    -0.04400
C531        C  0.95148341  0.27112401  0.14655977    -0.01500
C532        C  0.95329255  0.30858745  0.15108029     0.03500
C533        C  0.86264869  0.32752600  0.19733764     0.38200
C534        C  0.97776400  0.25336908  0.11743339     0.38100
C535        C  0.98192893  0.32665688  0.12732854     0.36600
C536        C  0.85876810  0.25558321  0.18426853     0.36600
N537        N  0.00513770  0.33994619  0.10748272    -0.38200
N538        N  0.83202494  0.24311434  0.19275680    -0.38200
N539        N  0.99894977  0.24001624  0.09359578    -0.37700
N540        N  0.83768854  0.34100980  0.21190809    -0.37700
C541        C  0.88095008  0.44845283  0.11988888    -0.04400
C542        C  0.89454823  0.48173251  0.10491241    -0.01500
C543        C  0.87910791  0.50122585  0.06498004     0.03500
C544        C  0.84963362  0.48824133  0.03960281    -0.04400
C545        C  0.83522517  0.45581437  0.05556696    -0.01500
C546        C  0.85000357  0.43673840  0.09606705     0.03500
C547        C  0.92401210  0.49707148  0.13049571     0.38200
C548        C  0.80552147  0.44118955  0.02923189     0.38100
C549        C  0.83194394  0.40560007  0.11380258     0.36600
C550        C  0.89364895  0.53508394  0.05108886     0.36600
N551        N  0.81642387  0.38101505  0.12631845    -0.38200
N552        N  0.90645660  0.56196093  0.04219772    -0.38200
N553        N  0.78184819  0.42957147  0.00828765    -0.37700
N554        N  0.94665345  0.51108792  0.15073501    -0.37700
C555        C  0.04125525  0.50034493  0.19242970    -0.04400
C556        C  0.03745115  0.47513171  0.15435251    -0.01500
C557        C  0.00934429  0.45135238  0.15520919     0.03500
C558        C  0.98728335  0.44943179  0.19708575    -0.04400
C559        C  0.99339989  0.47217650  0.23756910    -0.01500
C560        C  0.01982332  0.49797455  0.23483771     0.03500
C561        C  0.06133457  0.47467701  0.11271553     0.38200
C562        C  0.97296255  0.46882126  0.28249092     0.38100
C563        C  0.02619711  0.52054308  0.27716012     0.36600
C564        C  0.00115925  0.43156326  0.11068942     0.36600
N565        N  0.03108616  0.53774387  0.31185147    -0.38200
N566        N  0.99429873  0.41653475  0.07465686    -0.38200
N567        N  0.95702938  0.46636542  0.31872284    -0.37700
N568        N  0.08041069  0.47428779  0.07960665    -0.37700
C569        C  0.96586184  0.75360275  0.93647290    -0.04400
C570        C  0.95672171  0.77363216  0.89327548    -0.01500
C571        C  0.95601846  0.81089062  0.89480972     0.03500
C572        C  0.96502813  0.82881407  0.93943915    -0.04400
C573        C  0.96372570  0.80857728  0.98421497    -0.01500
C574        C  0.96342145  0.77117557  0.98265538     0.03500
C575        C  0.94716702  0.75610216  0.84729371     0.38200
C576        C  0.95809802  0.82522090  0.03171057     0.38100
C577        C  0.95536853  0.75158411  0.02781641     0.36600
C578        C  0.94493090  0.83045577  0.85050763     0.36600
N579        N  0.94872551  0.73656454  0.06426185    -0.38200
N580        N  0.93596396  0.84590926  0.81520551    -0.38200
N581        N  0.95324579  0.83689835  0.07065597    -0.37700
N582        N  0.93961292  0.74218425  0.81062439    -0.37700
C583        C  0.92239903  0.62903769  0.91857826    -0.04400
C584        C  0.89862494  0.62873270  0.95866402    -0.01500
C585        C  0.87080572  0.60467328  0.95946704     0.03500
C586        C  0.86789260  0.57862049  0.92250578    -0.04400
C587        C  0.89140917  0.57880130  0.88234505    -0.01500
C588        C  0.91824758  0.60429385  0.87998705     0.03500
C589        C  0.90374039  0.65173261  0.00096646     0.38200
C590        C  0.88705858  0.55387193  0.84223999     0.38100
C591        C  0.94095324  0.60562577  0.83721702     0.36600
C592        C  0.84586529  0.60594285  0.99977666     0.36600
N593        N  0.95883133  0.60671735  0.80278813    -0.38200
N594        N  0.82607577  0.60693458  0.03196662    -0.38200
N595        N  0.88367729  0.53444683  0.80959593    -0.37700
N596        N  0.90764070  0.66973993  0.03507508    -0.37700
C597        C  0.02165617  0.63960614  0.01035923    -0.04400
C598        C  0.04810489  0.65516439  0.04022669    -0.01500
C599        C  0.06057020  0.63792586  0.08384782     0.03500
C600        C  0.05146824  0.60261218  0.09447809    -0.04400
C601        C  0.02628202  0.58637531  0.06400152    -0.01500
C602        C  0.01103080  0.60478790  0.02296397     0.03500
C603        C  0.06458311  0.68788473  0.02480412     0.38200
C604        C  0.01509904  0.55071738  0.07442231     0.38100
C605        C  0.98484324  0.58677985  0.99382042     0.36600
C606        C  0.08043989  0.65769853  0.12010864     0.36600
N607        N  0.96481859  0.57081541  0.97101261    -0.38200
N608        N  0.09512230  0.67399762  0.14973767    -0.38200
N609        N  0.00415832  0.52258024  0.07975381    -0.37700
N610        N  0.07794375  0.71384980  0.01245518    -0.37700
C611        C  0.08724785  0.83722430  0.72424641    -0.04400
C612        C  0.10699175  0.81897474  0.76109326    -0.01500
C613        C  0.10857008  0.78172683  0.76116891     0.03500
C614        C  0.09196686  0.76253444  0.72285266    -0.04400
C615        C  0.07673150  0.78120421  0.68218027    -0.01500
C616        C  0.07329862  0.81830390  0.68367445     0.03500
C617        C  0.12354440  0.83815929  0.80129383     0.38200
C618        C  0.06470062  0.76231719  0.63858244     0.38100
C619        C  0.05475417  0.83684920  0.64385257     0.36600
C620        C  0.12486986  0.76343028  0.80308610     0.36600
N621        N  0.03969144  0.85156761  0.61233694    -0.38200
N622        N  0.13768633  0.74899588  0.83678794    -0.38200
N623        N  0.05545762  0.74739136  0.60352561    -0.37700
N624        N  0.13687858  0.85345935  0.83320915    -0.37700
C625        C  0.02220343  0.75559352  0.30863314    -0.04400
C626        C  0.04524403  0.77532322  0.27868692    -0.01500
C627        C  0.04525294  0.81246152  0.28088228     0.03500
C628        C  0.02229651  0.83010132  0.31318974    -0.04400
C629        C  0.99542474  0.81074162  0.33637850    -0.01500
C630        C  0.99512509  0.77338194  0.33351809     0.03500
C631        C  0.07015569  0.75726794  0.24740138     0.38200
C632        C  0.97012283  0.82874121  0.36690108     0.38100
C633        C  0.96858681  0.75334250  0.35922083     0.36600
C634        C  0.07005460  0.83247623  0.25159151     0.36600
N635        N  0.94717224  0.73739590  0.37934450    -0.38200
N636        N  0.08985434  0.84841168  0.22827396    -0.38200
N637        N  0.94990662  0.84299729  0.39139394    -0.37700
N638        N  0.09006912  0.74287914  0.22255975    -0.37700
C639        C  0.01817970  0.61914914  0.50173291    -0.04400
C640        C  0.03550537  0.59082382  0.52665200    -0.01500
C641        C  0.03690814  0.58965781  0.57941814     0.03500
C642        C  0.02211923  0.61743051  0.60703604    -0.04400
C643        C  0.00064448  0.64255498  0.58228968    -0.01500
C644        C  0.99836780  0.64315242  0.52990807     0.03500
C645        C  0.05535897  0.56533824  0.49845278     0.38200
C646        C  0.98308308  0.66966373  0.61070513     0.38100
C647        C  0.97743432  0.67007830  0.50487147     0.36600
C648        C  0.05648346  0.56193530  0.60491046     0.36600
N649        N  0.96078706  0.69161931  0.48496682    -0.38200
N650        N  0.07195010  0.53969291  0.62525615    -0.38200
N651        N  0.96941760  0.69143537  0.63345491    -0.37700
N652        N  0.07147639  0.54515295  0.47606301    -0.37700
C653        C  0.66243210  0.18051031  0.72030834    -0.04400
C654        C  0.67937442  0.16163012  0.68205093    -0.01500
C655        C  0.71598676  0.16199448  0.67868682     0.03500
C656        C  0.73598175  0.18124268  0.71331826    -0.04400
C657        C  0.71882470  0.20501703  0.74533019    -0.01500
C658        C  0.68225461  0.20428266  0.74943812     0.03500
C659        C  0.65939914  0.14161717  0.64605889     0.38200
C660        C  0.73859306  0.22914117  0.77611673     0.38100
C661        C  0.66572148  0.22657556  0.78612782     0.36600
C662        C  0.73311810  0.14266730  0.63932322     0.36600
N663        N  0.65274633  0.24437655  0.81552214    -0.38200
N664        N  0.74679436  0.12748525  0.60775088    -0.38200
N665        N  0.75421348  0.24862493  0.80043668    -0.37700
N666        N  0.64364813  0.12569022  0.61713448    -0.37700
C667        C  0.66090694  0.10173592  0.31656360    -0.04400
C668        C  0.67951986  0.07744263  0.34705346    -0.01500
C669        C  0.71622437  0.07580585  0.34444771     0.03500
C670        C  0.73416286  0.09874863  0.31160724    -0.04400
C671        C  0.71490545  0.11809714  0.27526647    -0.01500
C672        C  0.67837786  0.11948963  0.27771556     0.03500
C673        C  0.66141231  0.05665652  0.38429180     0.38200
C674        C  0.73268249  0.13828219  0.23696026     0.38100
C675        C  0.65878890  0.14079973  0.24184620     0.36600
C676        C  0.73531001  0.05287846  0.37870155     0.36600
N677        N  0.64309001  0.15777908  0.21336843    -0.38200
N678        N  0.75033858  0.03439849  0.40604185    -0.38200
N679        N  0.74673535  0.15455635  0.20650591    -0.37700
N680        N  0.64698439  0.04000936  0.41396112    -0.37700
C681        C  0.52179257  0.11394256  0.61988772    -0.04400
C682        C  0.54594875  0.09036111  0.59799487    -0.01500
C683        C  0.54848701  0.08838595  0.54565044     0.03500
C684        C  0.52824704  0.11100333  0.51472542    -0.04400
C685        C  0.50133259  0.13121596  0.53623674    -0.01500
C686        C  0.49760387  0.13196130  0.58851650     0.03500
C687        C  0.57073962  0.07062070  0.62858199     0.38200
C688        C  0.47959312  0.15409411  0.50524160     0.38100
C689        C  0.46981577  0.15283223  0.60993365     0.36600
C690        C  0.57284039  0.06377987  0.52358150     0.36600
N691        N  0.44761925  0.16950874  0.62684945    -0.38200
N692        N  0.59208192  0.04385426  0.50626175    -0.38200
N693        N  0.46243208  0.17257613  0.48061752    -0.37700
N694        N  0.59082762  0.05513433  0.65275628    -0.37700
C695        C  0.65878026  0.04573851  0.94577170    -0.04400
C696        C  0.67880311  0.04287670  0.99017963    -0.01500
C697        C  0.71556194  0.04171508  0.98773725     0.03500
C698        C  0.73237142  0.04426048  0.94094313    -0.04400
C699        C  0.71214988  0.03541394  0.89845370    -0.01500
C700        C  0.67552538  0.03577666  0.90102130     0.03500
C701        C  0.66212175  0.03636330  0.03758406     0.38200
C702        C  0.72869411  0.02534925  0.85224448     0.38100
C703        C  0.65526752  0.02535519  0.85773949     0.36600
C704        C  0.73534333  0.03354673  0.03264691     0.36600
N705        N  0.63916090  0.01684844  0.82334302    -0.38200
N706        N  0.75083652  0.02688088  0.06869807    -0.38200
N707        N  0.74176244  0.01746246  0.81528064    -0.37700
N708        N  0.64909944  0.03093537  0.07559815    -0.37700
C709        C  0.55184027  0.10639567  0.02485338    -0.04400
C710        C  0.56746774  0.13650612  0.04641517    -0.01500
C711        C  0.55291593  0.15245563  0.08885891     0.03500
C712        C  0.52093591  0.14045002  0.10851985    -0.04400
C713        C  0.50546939  0.11023043  0.08740454    -0.01500
C714        C  0.52022063  0.09396307  0.04518406     0.03500
C715        C  0.59745139  0.15271828  0.02308148     0.38200
C716        C  0.47456486  0.09488342  0.10909501     0.38100
C717        C  0.50139888  0.06526474  0.02232793     0.36600
C718        C  0.57186130  0.18042552  0.11361730     0.36600
N719        N  0.48424852  0.04339110  0.00531400    -0.38200
N720        N  0.58708123  0.20256148  0.13351994    -0.38200
N721        N  0.45056640  0.08085011  0.12566967    -0.37700
N722        N  0.62118301  0.16576308  0.00421482    -0.37700
C723        C  0.48161192  0.95463065  0.93688640    -0.04400
C724        C  0.50511436  0.95804155  0.97729885    -0.01500
C725        C  0.53126430  0.98397644  0.97591764     0.03500
C726        C  0.53438059  0.00658614  0.93390720    -0.04400
C727        C  0.51194289  0.00226923  0.89276879    -0.01500
C728        C  0.48554864  0.97649693  0.89429305     0.03500
C729        C  0.50241839  0.93530999  0.02086160     0.38200
C730        C  0.51707218  0.02317872  0.84788726     0.38100
C731        C  0.46372266  0.97140368  0.85076587     0.36600
C732        C  0.55367055  0.98875431  0.01913590     0.36600
N733        N  0.44699650  0.96760724  0.81525030    -0.38200
N734        N  0.57135275  0.99270545  0.05368475    -0.38200
N735        N  0.52126143  0.03942052  0.81169718    -0.37700
N736        N  0.50128093  0.91713977  0.05570859    -0.37700
C737        C  0.23672555  0.03142222  0.17103774    -0.04400
C738        C  0.21887227  0.99845037  0.17362683    -0.01500
C739        C  0.18231801  0.99694056  0.17138329     0.03500
C740        C  0.16185806  0.02828343  0.16712317    -0.04400
C741        C  0.17972704  0.05996426  0.15427365    -0.01500
C742        C  0.21673085  0.06154645  0.15642156     0.03500
C743        C  0.23796478  0.96513383  0.17768830     0.38200
C744        C  0.16127696  0.08985786  0.13236744     0.38100
C745        C  0.23344212  0.09310941  0.13740815     0.36600
C746        C  0.16599157  0.96228406  0.17252454     0.36600
N747        N  0.24573605  0.11861501  0.12130156    -0.38200
N748        N  0.15321811  0.93464957  0.17338436    -0.38200
N749        N  0.14762294  0.11419925  0.11429405    -0.37700
N750        N  0.25305821  0.93863448  0.18086566    -0.37700
C751        C  0.36027969  0.08820345  0.19337351    -0.04400
C752        C  0.38163893  0.09180150  0.23610081    -0.01500
C753        C  0.40953958  0.11596615  0.23610553     0.03500
C754        C  0.41652345  0.13644896  0.19324033    -0.04400
C755        C  0.39376059  0.13462685  0.15168312    -0.01500
C756        C  0.36577851  0.11066813  0.15180668     0.03500
C757        C  0.37391523  0.07203730  0.28112420     0.38200
C758        C  0.39986923  0.15649169  0.10783611     0.38100
C759        C  0.34310445  0.10899910  0.10855948     0.36600
C760        C  0.42980251  0.12120500  0.28117737     0.36600
N761        N  0.32512564  0.10862298  0.07384306    -0.38200
N762        N  0.44549310  0.12566492  0.31749859    -0.38200
N763        N  0.40472719  0.17410371  0.07310417    -0.37700
N764        N  0.36788681  0.05699426  0.31775378    -0.37700
C765        C  0.38353474  0.94639151  0.02865102    -0.04400
C766        C  0.39219334  0.94119070  0.07982632    -0.01500
C767        C  0.37428889  0.95984181  0.11716590     0.03500
C768        C  0.34999426  0.98660572  0.10419679    -0.04400
C769        C  0.34316737  0.99337679  0.05280529    -0.01500
C770        C  0.35785847  0.97177507  0.01595853     0.03500
C771        C  0.41876309  0.91590343  0.09528904     0.38200
C772        C  0.32054155  0.02223290  0.03672055     0.38100
C773        C  0.34354451  0.97361871  0.96583571     0.36600
C774        C  0.37945240  0.94926963  0.16877640     0.36600
N775        N  0.33089116  0.97525162  0.92664673    -0.38200
N776        N  0.38398992  0.93991162  0.20947638    -0.38200
N777        N  0.30214505  0.04457809  0.02270151    -0.37700
N778        N  0.43915912  0.89530873  0.10894770    -0.37700
C779        C  0.23217599  0.98912564  0.77514233    -0.04400
C780        C  0.21528960  0.99613572  0.72915142    -0.01500
C781        C  0.17881981  0.99932241  0.72686137     0.03500
C782        C  0.15883378  0.99429068  0.77025663    -0.04400
C783        C  0.17601541  0.99364761  0.81711000    -0.01500
C784        C  0.21277692  0.99067380  0.81951802     0.03500
C785        C  0.23534183  0.99816493  0.68362517     0.38200
C786        C  0.15605376  0.99396990  0.86264430     0.38100
C787        C  0.23018292  0.98608673  0.86724004     0.36600
C788        C  0.16171100  0.00654929  0.67941749     0.36600
N789        N  0.24399038  0.98240646  0.90541051    -0.38200
N790        N  0.14809973  0.01245779  0.64162123    -0.38200
N791        N  0.14028249  0.99469121  0.89914779    -0.37700
N792        N  0.25128143  0.99956892  0.64729172    -0.37700
C793        C  0.15912781  0.94064518  0.41605429    -0.04400
C794        C  0.17870766  0.91037012  0.43025339    -0.01500
C795        C  0.21537527  0.91131251  0.42963955     0.03500
C796        C  0.23272289  0.94280717  0.41629560    -0.04400
C797        C  0.21322364  0.97422047  0.40869908    -0.01500
C798        C  0.17658565  0.97316284  0.40832175     0.03500
C799        C  0.16121068  0.87820631  0.44563657     0.38200
C800        C  0.23059217  0.00730061  0.39725435     0.38100
C801        C  0.15730174  0.00530287  0.39626914     0.36600
C802        C  0.23525029  0.87971830  0.44235995     0.36600
N803        N  0.14203796  0.03095730  0.38658594    -0.38200
N804        N  0.25109951  0.85451508  0.45246299    -0.38200
N805        N  0.24428149  0.03373439  0.38812614    -0.37700
N806        N  0.14731440  0.85260717  0.45825992    -0.37700
C807        C  0.38226448  0.98051376  0.51519043    -0.04400
C808        C  0.36219791  0.00654855  0.53974538    -0.01500
C809        C  0.36038265  0.00654824  0.59229571     0.03500
C810        C  0.37800146  0.98031950  0.62083919    -0.04400
C811        C  0.40245062  0.95832317  0.59685173    -0.01500
C812        C  0.40501995  0.95895920  0.54431704     0.03500
C813        C  0.34140733  0.03199928  0.51156994     0.38200
C814        C  0.42302592  0.93290535  0.62540674     0.38100
C815        C  0.43047087  0.93655116  0.52028187     0.36600
C816        C  0.33929914  0.03291768  0.61702759     0.36600
N817        N  0.45090680  0.91880341  0.50118346    -0.38200
N818        N  0.32256822  0.05396077  0.63682224    -0.38200
N819        N  0.43945303  0.91252073  0.64798387    -0.37700
N820        N  0.32470432  0.05238524  0.48941511    -0.37700
C821        C  0.51631443  0.33454563  0.79707743    -0.04400
C822        C  0.53425979  0.31441155  0.83388898    -0.01500
C823        C  0.53249612  0.27720339  0.83382791     0.03500
C824        C  0.51323281  0.25994298  0.79646009    -0.04400
C825        C  0.49206145  0.28004082  0.76346620    -0.01500
C826        C  0.49324360  0.31736438  0.76417529     0.03500
C827        C  0.55672918  0.33190006  0.86953137     0.38200
C828        C  0.47087179  0.26222444  0.72662278     0.38100
C829        C  0.47346748  0.33774037  0.72766110     0.36600
C830        C  0.55385986  0.25666288  0.86845354     0.36600
N831        N  0.45757743  0.35386541  0.69846425    -0.38200
N832        N  0.57102367  0.24014568  0.89570652    -0.38200
N833        N  0.45399239  0.24804397  0.69716751    -0.37700
N834        N  0.57485873  0.34581576  0.89769538    -0.37700
C835        C  0.66769212  0.41035714  0.73815121    -0.04400
C836        C  0.68816668  0.43221994  0.70710944    -0.01500
C837        C  0.72473174  0.42944648  0.70859096     0.03500
C838        C  0.74125778  0.40560757  0.74214396    -0.04400
C839        C  0.72079803  0.38140083  0.76958485    -0.01500
C840        C  0.68415638  0.38394347  0.76788202     0.03500
C841        C  0.67194306  0.45954200  0.67631860     0.38200
C842        C  0.73725867  0.35484770  0.80144842     0.38100
C843        C  0.66354458  0.35968377  0.79758840     0.36600
C844        C  0.74535762  0.45106032  0.67514116     0.36600
N845        N  0.64732934  0.34030293  0.82150064    -0.38200
N846        N  0.76165114  0.46809037  0.64802447    -0.38200
N847        N  0.75045074  0.33357440  0.82660695    -0.37700
N848        N  0.65891172  0.48142690  0.65206291    -0.37700
C849        C  0.58909991  0.33097465  0.39767082    -0.04400
C850        C  0.56953411  0.31360744  0.43491804    -0.01500
C851        C  0.56830066  0.27634862  0.43689954     0.03500
C852        C  0.58725940  0.25609019  0.40241090    -0.04400
C853        C  0.60983144  0.27341024  0.36875207    -0.01500
C854        C  0.61063821  0.31066351  0.36622123     0.03500
C855        C  0.55041020  0.33402607  0.47116196     0.38200
C856        C  0.63005643  0.25318838  0.33341511     0.38100
C857        C  0.63158713  0.32769577  0.32819804     0.36600
C858        C  0.54693719  0.25888402  0.47396398     0.36600
N859        N  0.64822934  0.34112107  0.29772484    -0.38200
N860        N  0.52980010  0.24494835  0.50338842    -0.38200
N861        N  0.64614308  0.23722229  0.30508177    -0.37700
N862        N  0.53525714  0.35023147  0.50024849    -0.37700
C863        C  0.67132133  0.48274003  0.32552169    -0.04400
C864        C  0.69211703  0.47357696  0.28448162    -0.01500
C865        C  0.72866149  0.47229076  0.28956098     0.03500
C866        C  0.74452069  0.47904354  0.33610735    -0.04400
C867        C  0.72406721  0.49249432  0.37515757    -0.01500
C868        C  0.68754853  0.49474007  0.36964204     0.03500
C869        C  0.67579601  0.46358551  0.23785219     0.38200
C870        C  0.73992420  0.50015449  0.42303413     0.38100
C871        C  0.66663371  0.50535256  0.41171490     0.36600
C872        C  0.74997820  0.46273906  0.24740332     0.36600
N873        N  0.65011127  0.51366087  0.44549107    -0.38200
N874        N  0.76704984  0.45538096  0.21372305    -0.38200
N875        N  0.75232986  0.50605248  0.46143800    -0.37700
N876        N  0.66279558  0.45546912  0.20070907    -0.37700
C877        C  0.53076501  0.47454648  0.49611244    -0.04400
C878        C  0.50714449  0.45133256  0.51940926    -0.01500
C879        C  0.50542382  0.44946606  0.57196103     0.03500
C880        C  0.52816647  0.46989885  0.60178028    -0.04400
C881        C  0.54849835  0.49628926  0.57805018    -0.01500
C882        C  0.54887835  0.49914144  0.52551823     0.03500
C883        C  0.48643054  0.42742398  0.48959508     0.38200
C884        C  0.57138262  0.51874129  0.60679332     0.38100
C885        C  0.56811108  0.52733708  0.50142009     0.36600
C886        C  0.48055485  0.42589829  0.59502933     0.36600
N887        N  0.58286410  0.55025493  0.48223547    -0.38200
N888        N  0.46034398  0.40717937  0.61281542    -0.38200
N889        N  0.58993249  0.53661150  0.62933965    -0.37700
N890        N  0.47000600  0.40834215  0.46571550    -0.37700
C891        C  0.66877358  0.53237615  0.93438102    -0.04400
C892        C  0.69116124  0.51801452  0.89775844    -0.01500
C893        C  0.72596522  0.52798158  0.89626232     0.03500
C894        C  0.74350906  0.53603552  0.94105780    -0.04400
C895        C  0.72255537  0.54941627  0.97999357    -0.01500
C896        C  0.68545502  0.54953772  0.97525354     0.03500
C897        C  0.68263762  0.48648667  0.87005131     0.38200
C898        C  0.73863823  0.56578300  0.02281965     0.38100
C899        C  0.66507426  0.56695551  0.01299439     0.36600
C900        C  0.74333582  0.52887433  0.84845390     0.36600
N901        N  0.64935795  0.58185407  0.04284683    -0.38200
N902        N  0.75713963  0.52965146  0.81032441    -0.38200
N903        N  0.75104697  0.57899819  0.05727559    -0.37700
N904        N  0.67632683  0.46106521  0.84822072    -0.37700
C905        C  0.46760197  0.33182833  0.16881087    -0.04400
C906        C  0.46654947  0.31193974  0.12453401    -0.01500
C907        C  0.46778292  0.27459143  0.12682463     0.03500
C908        C  0.46884947  0.25686760  0.17368454    -0.04400
C909        C  0.45830362  0.27675396  0.21566363    -0.01500
C910        C  0.45797871  0.31397794  0.21336413     0.03500
C911        C  0.45782616  0.32889064  0.07750036     0.38200
C912        C  0.44646074  0.25919289  0.26081308     0.38100
C913        C  0.44663365  0.33367008  0.25654981     0.36600
C914        C  0.46342232  0.25509823  0.08101422     0.36600
N915        N  0.43742899  0.34926764  0.29091080    -0.38200
N916        N  0.45992605  0.23998768  0.04407992    -0.38200
N917        N  0.43691206  0.24521478  0.29669818    -0.37700
N918        N  0.44986197  0.34108147  0.03940776    -0.37700
C919        C  0.52125907  0.44370625  0.08928364    -0.04400
C920        C  0.55158944  0.46307210  0.10038610    -0.01500
C921        C  0.57083453  0.47967458  0.06191552     0.03500
C922        C  0.56146986  0.47532588  0.01089663    -0.04400
C923        C  0.53223585  0.45416846  0.00013119    -0.01500
C924        C  0.51118969  0.44067515  0.03871934     0.03500
C925        C  0.56426790  0.46525281  0.15121667     0.38200
C926        C  0.52478713  0.44321572  0.94967628     0.38100
C927        C  0.47821293  0.42505618  0.02526235     0.36600
C928        C  0.60046371  0.50085707  0.07624513     0.36600
N929        N  0.45205204  0.41366055  0.01158079    -0.38200
N930        N  0.62422307  0.51694991  0.08949630    -0.38200
N931        N  0.51776361  0.43256025  0.91070835    -0.37700
N932        N  0.57573928  0.46770312  0.19096255    -0.37700
C933        C  0.23970150  0.55523164  0.18513289    -0.04400
C934        C  0.22017315  0.52597958  0.20285199    -0.01500
C935        C  0.18307978  0.52630705  0.19990053     0.03500
C936        C  0.16455379  0.55384654  0.17362398    -0.04400
C937        C  0.18457755  0.58400620  0.15984454    -0.01500
C938        C  0.22044813  0.58569374  0.17040477     0.03500
C939        C  0.23691855  0.49792791  0.23157846     0.38200
C940        C  0.16899858  0.61535796  0.13742702     0.38100
C941        C  0.23633463  0.62047430  0.17307787     0.36600
C942        C  0.16488791  0.50040908  0.23008809     0.36600
N943        N  0.24835443  0.64824592  0.17769057    -0.38200
N944        N  0.15119630  0.47965867  0.25503711    -0.38200
N945        N  0.15866478  0.64091648  0.11836642    -0.37700
N946        N  0.24936833  0.47530799  0.25514204    -0.37700
C947        C  0.36544433  0.50465785  0.19429254    -0.04400
C948        C  0.38965064  0.50005256  0.23358208    -0.01500
C949        C  0.41731046  0.47561310  0.22911745     0.03500
C950        C  0.42061924  0.45534063  0.18553282    -0.04400
C951        C  0.39465562  0.45809387  0.14798126    -0.01500
C952        C  0.36771512  0.48319361  0.15179397     0.03500
C953        C  0.38511633  0.51899124  0.27972200     0.38200
C954        C  0.39459392  0.43447179  0.10590040     0.38100
C955        C  0.34345398  0.48828225  0.11054119     0.36600
C956        C  0.44049328  0.46939948  0.27116399     0.36600
N957        N  0.32422713  0.49257370  0.07762664    -0.38200
N958        N  0.45810489  0.46449408  0.30570991    -0.38200
N959        N  0.39295284  0.41516016  0.07290367    -0.37700
N960        N  0.38166051  0.53324298  0.31727095    -0.37700
C961        C  0.42724190  0.75394682  0.95624630    -0.04400
C962        C  0.45294316  0.77351387  0.92969169    -0.01500
C963        C  0.45292570  0.81100076  0.92915373     0.03500
C964        C  0.42632379  0.83042328  0.95336604    -0.04400
C965        C  0.39676461  0.81084389  0.96909779    -0.01500
C966        C  0.39755397  0.77348729  0.97198392     0.03500
C967        C  0.47669523  0.75561935  0.89628382     0.38200
C968        C  0.36340326  0.82853730  0.97606815     0.38100
C969        C  0.36540429  0.75613092  0.98555988     0.36600
C970        C  0.47767641  0.82876170  0.89701399     0.36600
N971        N  0.33896910  0.74408780  0.99675131    -0.38200
N972        N  0.49746268  0.84232879  0.87085904    -0.38200
N973        N  0.33677210  0.84240295  0.98118358    -0.37700
N974        N  0.49524266  0.74166335  0.86891862    -0.37700
C975        C  0.49076543  0.63487811  0.94158208    -0.04400
C976        C  0.50097228  0.62026761  0.89593995    -0.01500
C977        C  0.52765945  0.59467743  0.89473694     0.03500
C978        C  0.54425268  0.58339003  0.93929664    -0.04400
C979        C  0.53506195  0.59914792  0.98480862    -0.01500
C980        C  0.50885989  0.62545772  0.98580165     0.03500
C981        C  0.48462860  0.63229581  0.84985699     0.38200
C982        C  0.55106975  0.58695394  0.03096373     0.38100
C983        C  0.49881533  0.64098731  0.03278235     0.36600
C984        C  0.53808122  0.58029426  0.84728889     0.36600
N985        N  0.49053321  0.65321977  0.07020957    -0.38200
N986        N  0.54602751  0.56933739  0.80894197    -0.38200
N987        N  0.56336091  0.57729064  0.06817760    -0.37700
N988        N  0.47196894  0.64199584  0.81290078    -0.37700
C989        C  0.38209117  0.63175479  0.01273475    -0.04400
C990        C  0.39783397  0.60350660  0.03894940    -0.01500
C991        C  0.38142898  0.58841003  0.08109201     0.03500
C992        C  0.34746551  0.59953471  0.09534301    -0.04400
C993        C  0.33016856  0.62488476  0.06370322    -0.01500
C994        C  0.34719313  0.63984150  0.02224815     0.03500
C995        C  0.42946514  0.58758889  0.02044979     0.38200
C996        C  0.29512105  0.63728006  0.07267338     0.38100
C997        C  0.32797480  0.66164771  0.98651069     0.36600
C998        C  0.40075724  0.56168809  0.10874720     0.36600
N999        N  0.31237598  0.67810637  0.95733806    -0.38200
N1000       N  0.41858583  0.54139529  0.12913162    -0.38200
N1001       N  0.26704290  0.64806955  0.07596233    -0.37700
N1002       N  0.45359455  0.57268295  0.00583079    -0.37700
C1003       C  0.24845581  0.60417076  0.76744372    -0.04400
C1004       C  0.23022850  0.59253387  0.72493109    -0.01500
C1005       C  0.19359117  0.59353993  0.72369156     0.03500
C1006       C  0.17491174  0.60571792  0.76536625    -0.04400
C1007       C  0.19307553  0.61158378  0.81059622    -0.01500
C1008       C  0.22985409  0.61101797  0.81154097     0.03500
C1009       C  0.24937208  0.58015900  0.68207206     0.38200
C1010       C  0.17428840  0.62092484  0.85525390     0.38100
C1011       C  0.24828596  0.62022712  0.85687918     0.36600
C1012       C  0.17521004  0.58277329  0.67901238     0.36600
N1013       N  0.26281801  0.62749022  0.89322502    -0.38200
N1014       N  0.16066247  0.57413476  0.64330541    -0.38200
N1015       N  0.15932380  0.62824664  0.89095056    -0.37700
N1016       N  0.26486316  0.57015094  0.64819847    -0.37700
C1017       C  0.32771628  0.75624070  0.73455843    -0.04400
C1018       C  0.33342889  0.77632729  0.69070564    -0.01500
C1019       C  0.33183724  0.81359894  0.69195923     0.03500
C1020       C  0.32430443  0.83092141  0.73701514    -0.04400
C1021       C  0.31799643  0.81068921  0.78062624    -0.01500
C1022       C  0.31970450  0.77358274  0.77938874     0.03500
C1023       C  0.34120385  0.75870052  0.64433723     0.38200
C1024       C  0.31276096  0.82792340  0.82809937     0.38100
C1025       C  0.31628935  0.75350001  0.82554375     0.36600
C1026       C  0.33834985  0.83406212  0.64699285     0.36600
N1027       N  0.31387063  0.73755244  0.86236307    -0.38200
N1028       N  0.34373016  0.85039762  0.61120955    -0.38200
N1029       N  0.30882032  0.84156820  0.86601029    -0.37700
N1030       N  0.34746686  0.74470488  0.60733552    -0.37700
C1031       C  0.24023316  0.64639707  0.39685907    -0.04400
C1032       C  0.22160877  0.61612871  0.38164121    -0.01500
C1033       C  0.18494467  0.61643433  0.38100452     0.03500
C1034       C  0.16634166  0.64718563  0.39501710    -0.04400
C1035       C  0.18499199  0.67679795  0.41250595    -0.01500
C1036       C  0.22170216  0.67626104  0.41384268     0.03500
C1037       C  0.23986686  0.58524539  0.36316042     0.38200
C1038       C  0.16658732  0.70811340  0.42894176     0.38100
C1039       C  0.24036423  0.70657050  0.43294994     0.36600
C1040       C  0.16673280  0.58564758  0.36236176     0.36600
N1041       N  0.25527504  0.73070451  0.44818480    -0.38200
N1042       N  0.15245353  0.56102637  0.34742937    -0.38200
N1043       N  0.15209614  0.73325167  0.44184485    -0.37700
N1044       N  0.25416566  0.56055524  0.34830762    -0.37700
C1045       C  0.37955005  0.76000222  0.35734805    -0.04400
C1046       C  0.37805109  0.77923047  0.31179848    -0.01500
C1047       C  0.37603262  0.81663033  0.31204786     0.03500
C1048       C  0.37510938  0.83475198  0.35771292    -0.04400
C1049       C  0.38024546  0.81572866  0.40271602    -0.01500
C1050       C  0.38313142  0.77863757  0.40244023     0.03500
C1051       C  0.37627145  0.76074088  0.26484511     0.38200
C1052       C  0.38171978  0.83432116  0.44972422     0.38100
C1053       C  0.38947676  0.75962352  0.44892337     0.36600
C1054       C  0.37239142  0.83622476  0.26556376     0.36600
N1055       N  0.39465339  0.74459094  0.48602764    -0.38200
N1056       N  0.36953994  0.85188341  0.22847966    -0.38200
N1057       N  0.38274578  0.84909866  0.48721003    -0.37700
N1058       N  0.37492599  0.74615278  0.22722504    -0.37700
C1059       C  0.39661067  0.61006713  0.50727486    -0.04400
C1060       C  0.41861651  0.63394411  0.53242282    -0.01500
C1061       C  0.41978066  0.63402725  0.58506123     0.03500
C1062       C  0.39915820  0.61009900  0.61291522    -0.04400
C1063       C  0.38285312  0.58200612  0.58764453    -0.01500
C1064       C  0.38097553  0.58243372  0.53501310     0.03500
C1065       C  0.43732692  0.66083074  0.50477548     0.38200
C1066       C  0.36563235  0.55413559  0.61538900     0.38100
C1067       C  0.36101218  0.55559403  0.50952592     0.36600
C1068       C  0.44059540  0.66027706  0.61053974     0.36600
N1069       N  0.34485531  0.53429215  0.48932723    -0.38200
N1070       N  0.45696682  0.68133189  0.63092580    -0.38200
N1071       N  0.35207230  0.53174974  0.63747655    -0.37700
N1072       N  0.45235964  0.68236542  0.48301700    -0.37700
loop_ 
_geom_bond_atom_site_label_1 
_geom_bond_atom_site_label_2 
_geom_bond_distance 
_geom_bond_site_symmetry_2 
_ccdc_geom_bond_type 
O1            C4   1.269       .  A
O1           Cd6   2.538       .  S
C2           O11   1.258       .  A
C2            O7   1.270       .  A
C2           C46   1.482       .  S
O3            C9   1.268       .  A
O3           Cd6   2.445       .  S
C4           O12   1.260       .  A
C4         C1059   1.496       .  S
C5           O10   1.263       .  A
C5            O8   1.268       .  A
C5         C1045   1.490       .  S
Cd6          O13   2.440       .  S
Cd6          O12   2.441       .  S
Cd6          O11   2.403       .  S
Cd6           O7   2.565       .  S
Cd6          O10   2.418       .  S
Cd6           O8   2.519       .  S
C9           O13   1.267       .  A
C9         C1031   1.488       .  S
O14          C17   1.258       .  A
O14         Cd19   2.419       .  S
C15          O24   1.257       .  A
C15          O20   1.268       .  A
C15          C34   1.479       .  S
O16          C22   1.267       .  A
O16         Cd19   2.449       .  S
C17          O25   1.268       .  A
C17        C1062   1.497       .  S
C18          O23   1.267       .  A
C18          O21   1.264       .  A
C18        C1003   1.486       .  S
Cd19         O26   2.443       .  S
Cd19         O25   2.532       .  S
Cd19         O24   2.384       .  S
Cd19         O20   2.562       .  S
Cd19         O23   2.499       .  S
Cd19         O21   2.426       .  S
C22          O26   1.265       .  A
C22        C1017   1.480       .  S
C27          C28   1.545       .  S
C27          C33   1.526       .  S
C27          C31   1.544       .  S
C27         C961   1.557       .  S
C28          H35   1.083   1_556  S
C28          C29   1.373       .  D
C29         C989   1.495   1_556  S
C29          C30   1.539       .  S
C30          C34   1.536       .  S
C30          C32   1.543       .  S
C30          H36   1.110       .  S
C31          H37   1.085       .  S
C31          C32   1.366       .  D
C32         C975   1.484       .  S
C33          H38   1.087       .  S
C33          C34   1.359       .  D
C39          C40   1.541       .  S
C39          C45   1.529       .  S
C39          C43   1.541       .  S
C39         C933   1.559       .  S
C40          H47   1.082       .  S
C40          C41   1.372       .  D
C41         C992   1.523       .  S
C41          C42   1.561       .  S
C42          C46   1.536       .  S
C42          C44   1.544       .  S
C42          H48   1.108       .  S
C43          H49   1.080       .  S
C43          C44   1.371       .  D
C44         C947   1.484       .  S
C45          H50   1.087       .  S
C45          C46   1.359       .  D
C51          C52   1.531       .  S
C51          C57   1.544       .  S
C51          C55   1.526       .  S
C51         C905   1.544       .  S
C52          H59   1.086       .  S
C52          C53   1.364       .  D
C53          C83   1.486       .  S
C53          C54   1.547       .  S
C54          C58   1.555       .  S
C54          C56   1.548       .  S
C54          H60   1.110       .  S
C55          H61   1.087       .  S
C55          C56   1.361       .  D
C56         C950   1.490       .  S
C57          H62   1.084       .  S
C57          C58   1.372       .  D
C58         C919   1.509       .  S
C63          C64   1.536       .  S
C63          C69   1.540       .  S
C63          C67   1.544       .  S
C63         C891   1.563       .  S
C64          H71   1.081       .  S
C64          C65   1.358       .  D
C65          C91   1.493       .  S
C65          C66   1.546       .  S
C66          C70   1.550       .  S
C66          C68   1.544       .  S
C66          H72   1.109       .  S
C67          H73   1.085       .  S
C67          C68   1.372       .  D
C68         C978   1.487       .  S
C69          H74   1.085       .  S
C69          C70   1.372       .  D
C70         C922   1.517   1_556  S
O75          C78   1.264       .  A
O75         Cd80   2.464       .  S
C76          O85   1.268       .  A
C76          O81   1.263       .  A
C76         C863   1.485       .  S
O77          C83   1.259       .  A
O77         Cd80   2.380       .  S
C78          O86   1.264       .  A
C78         C849   1.490       .  S
C79          O84   1.262       .  A
C79          O82   1.268       .  A
C79         C877   1.490       .  S
Cd80         O87   2.572       .  S
Cd80         O86   2.456       .  S
Cd80         O85   2.492       .  S
Cd80         O81   2.426       .  S
Cd80         O84   2.442       .  S
Cd80         O82   2.509       .  S
C83          O87   1.271       .  A
O88          C91   1.268       .  A
O88         Cd93   2.567       .  S
C89          O98   1.266       .  A
C89          O94   1.264       .  A
C89         C880   1.503       .  S
O90          C96   1.263       .  A
O90         Cd93   2.454       .  S
C91          O99   1.262       .  A
C92          O97   1.261       .  A
C92          O95   1.271       .  A
C92         C821   1.485       .  S
Cd93        O100   2.470       .  S
Cd93         O99   2.401       .  S
Cd93         O98   2.510       .  S
Cd93         O94   2.481       .  S
Cd93         O97   2.403       .  S
Cd93         O95   2.525       .  S
C96         O100   1.266       .  A
C96         C835   1.487       .  S
O101        C104   1.265       .  A
O101       Cd106   2.494       .  S
C102        O111   1.260       .  A
C102        O107   1.270       .  A
C102        C129   1.487   1_565  S
O103        C109   1.263       .  A
O103       Cd106   2.411       .  S
C104        O112   1.263       .  A
C104        C807   1.503       .  S
C105        O110   1.265       .  A
C105        O108   1.265       .  A
C105        C796   1.485       .  S
Cd106       O113   2.512       .  S
Cd106       O112   2.464       .  S
Cd106       O111   2.384       .  S
Cd106       O107   2.581       .  S
Cd106       O110   2.453       .  S
Cd106       O108   2.459       .  S
C109        O113   1.270       .  A
C109       C1048   1.484       .  S
O114        C117   1.272       .  A
O114       Cd119   2.579       .  S
C115        O124   1.266       .  A
C115        O120   1.261       .  A
C115        C810   1.497       .  S
O116        C122   1.265       .  A
O116       Cd119   2.435       .  S
C117        O125   1.259       .  A
C117        C141   1.488       .  S
C118        O123   1.262       .  A
C118        O121   1.271       .  A
C118        C779   1.487       .  S
Cd119       O126   2.462       .  S
Cd119       O125   2.384       .  S
Cd119       O124   2.518       .  S
Cd119       O120   2.446       .  S
Cd119       O123   2.405       .  S
Cd119       O121   2.533       .  S
C122        O126   1.266       .  A
C122       C1020   1.482       .  S
C127        C128   1.528       .  S
C127        C133   1.529       .  S
C127        C131   1.554       .  S
C127        C737   1.559       .  S
C128        H135   1.087       .  S
C128        C129   1.362       .  D
C129        C130   1.548       .  S
C130        C134   1.551       .  S
C130        C132   1.541       .  S
C130        H136   1.109       .  S
C131        H137   1.080       .  S
C131        C132   1.374       .  D
C132        C751   1.495       .  S
C133        H138   1.087       .  S
C133        C134   1.362       .  D
C134        C768   1.507   1_545  S
C139        C140   1.523       .  S
C139        C145   1.538       .  S
C139        C143   1.546       .  S
C139        C964   1.554       .  S
C140        H147   1.088       .  S
C140        C141   1.361       .  D
C141        C142   1.545       .  S
C142        C146   1.553       .  S
C142        C144   1.541       .  S
C142        H148   1.110       .  S
C143        H149   1.083       .  S
C143        C144   1.369       .  D
C144        C723   1.492       .  S
C145        H150   1.084   1_556  S
C145        C146   1.367       .  D
C146        C765   1.505   1_556  S
C151        C152   1.546       .  S
C151        C157   1.534       .  S
C151        C155   1.525       .  S
C151        C695   1.547       .  S
C152        H159   1.082   1_556  S
C152        C153   1.374       .  D
C153        C709   1.510   1_556  S
C153        C154   1.551       .  S
C154        C158   1.546       .  S
C154        C156   1.547       .  S
C154        H160   1.110       .  S
C155        H161   1.088   1_545  S
C155        C156   1.361       .  D
C156        C726   1.487       .  S
C157        H162   1.087       .  S
C157        C158   1.363       .  D
C158        C189   1.487       .  S
C163        C164   1.542       .  S
C163        C169   1.532       .  S
C163        C167   1.525       .  S
C163        C908   1.544       .  S
C164        H171   1.082       .  S
C164        C165   1.371       .  D
C165        C712   1.508       .  S
C165        C166   1.552       .  S
C166        C170   1.544       .  S
C166        C168   1.549       .  S
C166        H172   1.110       .  S
C167        H173   1.086       .  S
C167        C168   1.360       .  D
C168        C754   1.491       .  S
C169        H174   1.086       .  S
C169        C170   1.365       .  D
C170        C176   1.482       .  S
O175        C178   1.263       .  A
O175       Cd180   2.451       .  S
C176        O185   1.259       .  A
C176        O181   1.269       .  A
O177        C183   1.265       .  A
O177       Cd180   2.462       .  S
C178        O186   1.267       .  A
C178        C684   1.491       .  S
C179        O184   1.269       .  A
C179        O182   1.262       .  A
C179        C667   1.484       .  S
Cd180       O187   2.454       .  S
Cd180       O186   2.501       .  S
Cd180       O185   2.381       .  S
Cd180       O181   2.563       .  S
Cd180       O184   2.508       .  S
Cd180       O182   2.395       .  S
C183        O187   1.266       .  A
C183        C852   1.488       .  S
O188        C191   1.265       .  A
O188       Cd193   2.490       .  S
C189        O198   1.271       .  A
C189        O194   1.263       .  A
O190        C196   1.264       .  A
O190       Cd193   2.466       .  S
C191        O199   1.262       .  A
C191        C681   1.497       .  S
C192        O197   1.262       .  A
C192        O195   1.269       .  A
C192        C824   1.480       .  S
Cd193       O200   2.468       .  S
Cd193       O199   2.452       .  S
Cd193       O198   2.558       .  S
Cd193       O194   2.403       .  S
Cd193       O197   2.422       .  S
Cd193       O195   2.504       .  S
C196        O200   1.264       .  A
C196        C653   1.497       .  S
O201        C204   1.263       .  A
O201       Cd206   2.430       .  S
C202        O211   1.258       .  A
C202        O207   1.271       .  A
C202        C241   1.482       .  S
O203        C209   1.262       .  A
O203       Cd206   2.401       .  S
C204        O212   1.269       .  A
C204        C639   1.492       .  S
C205        O210   1.267       .  A
C205        O208   1.266       .  A
C205       C1034   1.491       .  S
Cd206       O213   2.525       .  S
Cd206       O212   2.525       .  S
Cd206       O211   2.371       .  S
Cd206       O207   2.569       .  S
Cd206       O210   2.461       .  S
Cd206       O208   2.444       .  S
C209        O213   1.269       .  A
C209        C625   1.487       .  S
O214        C217   1.258       .  A
O214       Cd219   2.401       .  S
C215        O224   1.268       .  A
C215        O220   1.259       .  A
C215        C229   1.488       .  S
O216        C222   1.262       .  A
O216       Cd219   2.446       .  S
C217        O225   1.269       .  A
C217        C642   1.488       .  S
C218        O223   1.269       .  A
C218        O221   1.266       .  A
C218        C614   1.489       .  S
Cd219       O226   2.501       .  S
Cd219       O225   2.558       .  S
Cd219       O224   2.575       .  S
Cd219       O220   2.417       .  S
Cd219       O223   2.471       .  S
Cd219       O221   2.438       .  S
C222        O226   1.266       .  A
C222       C1006   1.491       .  S
C227        C228   1.532       .  S
C227        C233   1.543       .  S
C227        C231   1.526       .  S
C227        C569   1.548       .  S
C228        H235   1.086   1_655  S
C228        C229   1.363   1_655  D
C229        C230   1.546   1_455  S
C230        C234   1.558   1_655  S
C230        C232   1.553       .  S
C230        H236   1.107       .  S
C231        H237   1.087       .  S
C231        C232   1.364       .  D
C232        C583   1.499       .  S
C233        H238   1.078   1_656  S
C233        C234   1.374   1_655  D
C234        C597   1.520   1_556  S
C239        C240   1.526       .  S
C239        C245   1.548       .  S
C239        C243   1.545       .  S
C239        C936   1.568       .  S
C240        H247   1.086       .  S
C240        C241   1.362       .  D
C241        C242   1.540       .  S
C242        C246   1.549       .  S
C242        C244   1.547       .  S
C242        H248   1.112       .  S
C243        H249   1.062       .  S
C243        C244   1.372       .  D
C244        C555   1.496       .  S
C245        H250   1.083       .  S
C245        C246   1.372       .  D
C246        C600   1.505       .  S
C251        C252   1.537       .  S
C251        C257   1.533       .  S
C251        C255   1.543       .  S
C251        C527   1.562       .  S
C252        H259   1.086       .  S
C252        C253   1.369       .  D
C253        C541   1.518       .  S
C253        C254   1.551       .  S
C254        C258   1.542       .  S
C254        C256   1.552       .  S
C254        H260   1.108       .  S
C255        H261   1.080       .  S
C255        C256   1.375       .  D
C256        C558   1.497       .  S
C257        H262   1.087       .  S
C257        C258   1.360       .  D
C258        C276   1.487       .  S
C263        C264   1.542       .  S
C263        C269   1.540       .  S
C263        C267   1.533       .  S
C263        C894   1.558       .  S
C264        H271   1.086   1_556  S
C264        C265   1.377       .  D
C265        C544   1.504   1_556  S
C265        C266   1.554       .  S
C266        C270   1.539       .  S
C266        C268   1.544       .  S
C266        H272   1.111       .  S
C267        H273   1.086       .  S
C267        C268   1.368       .  D
C268        C586   1.493       .  S
C269        H274   1.086       .  S
C269        C270   1.358       .  D
C270        C289   1.486       .  S
O275        C278   1.268       .  A
O275       Cd280   2.526       .  S
C276        O285   1.270       .  A
C276        O281   1.260       .  A
O277        C283   1.264       .  A
O277       Cd280   2.473       .  S
C278        O286   1.263       .  A
C278        C516   1.493       .  S
C279        O284   1.263       .  A
C279        O282   1.269       .  A
C279        C866   1.487       .  S
Cd280       O287   2.438       .  S
Cd280       O286   2.461       .  S
Cd280       O285   2.574       .  S
Cd280       O281   2.392       .  S
Cd280       O284   2.429       .  S
Cd280       O282   2.504       .  S
C283        O287   1.264       .  A
C283        C499   1.486       .  S
O288        C291   1.267       .  A
O288       Cd293   2.522       .  S
C289        O298   1.260       .  A
C289        O294   1.269       .  A
O290        C296   1.265       .  A
O290       Cd293   2.477       .  S
C291        O299   1.264       .  A
C291        C513   1.505       .  S
C292        O297   1.263       .  A
C292        O295   1.270       .  A
C292        C485   1.486       .  S
Cd293       O300   2.451       .  S
Cd293       O299   2.469       .  S
Cd293       O298   2.396       .  S
Cd293       O294   2.573       .  S
Cd293       O297   2.417       .  S
Cd293       O295   2.512       .  S
C296        O300   1.264       .  A
C296        C838   1.488       .  S
O301        C304   1.262       .  A
O301       Cd306   2.442       .  S
C302        O311   1.270       .  A
C302        O307   1.259       .  A
C302        C365   1.485       .  S
O303        C309   1.271       .  A
O303       Cd306   2.507       .  S
C304        O312   1.267       .  A
C304        C471   1.491       .  S
C305        O310   1.264       .  A
C305        O308   1.264       .  A
C305        C502   1.482       .  S
Cd306       O313   2.398       .  S
Cd306       O312   2.503       .  S
Cd306       O311   2.574       .  S
Cd306       O307   2.376       .  S
Cd306       O310   2.458       .  S
Cd306       O308   2.442       .  S
C309        O313   1.263       .  A
C309        C670   1.490       .  S
O314        C317   1.268       .  A
O314       Cd319   2.502       .  S
C315        O324   1.268       .  A
C315        O320   1.260       .  A
C315        C353   1.481       .  S
O316        C322   1.262       .  A
O316       Cd319   2.401       .  S
C317        O325   1.264       .  A
C317        C474   1.496       .  S
C318        O323   1.265       .  A
C318        O321   1.265       .  A
C318        C656   1.492       .  S
Cd319       O326   2.515       .  S
Cd319       O325   2.459       .  S
Cd319       O324   2.537       .  S
Cd319       O320   2.418       .  S
Cd319       O323   2.465       .  S
Cd319       O321   2.450       .  S
C322        O326   1.269       .  A
C322        C488   1.486       .  S
C327        C328   1.537       .  S
C327        C333   1.533       .  S
C327        C331   1.549       .  S
C327        C740   1.560       .  S
C328        H335   1.086   1_545  S
C328        C329   1.369   1_545  D
C329        C457   1.517       .  S
C329        C330   1.552   1_565  S
C330        C334   1.546   1_545  S
C330        C332   1.535       .  S
C330        H336   1.109       .  S
C331        H337   1.079       .  S
C331        C332   1.368       .  D
C332        C443   1.490       .  S
C333        H338   1.086   1_545  S
C333        C334   1.364   1_545  D
C334        C376   1.485       .  S
C339        C340   1.549       .  S
C339        C345   1.535       .  S
C339        C343   1.527       .  S
C339        C572   1.550       .  S
C340        H347   1.083   1_656  S
C340        C341   1.375       .  D
C341        C460   1.513   1_656  S
C341        C342   1.554       .  S
C342        C346   1.546       .  S
C342        C344   1.543       .  S
C342        H348   1.110       .  S
C343        H349   1.088       .  S
C343        C344   1.359       .  D
C344        C432   1.487       .  S
C345        H350   1.086   1_655  S
C345        C346   1.364       .  D
C346        C389   1.486   1_655  S
C351        C352   1.539       .  S
C351        C357   1.543       .  S
C351        C355   1.527       .  S
C351        C698   1.547       .  S
C352        H359   1.087       .  S
C352        C353   1.366       .  D
C353        C354   1.538       .  S
C354        C358   1.548       .  S
C354        C356   1.542       .  S
C354        H360   1.110       .  S
C355        H361   1.087   1_545  S
C355        C356   1.364       .  D
C356        C429   1.483   1_545  S
C357        H362   1.083   1_556  S
C357        C358   1.370       .  D
C358        C415   1.510   1_556  S
C363        C364   1.534       .  S
C363        C369   1.538       .  S
C363        C367   1.541       .  S
C363        C530   1.560       .  S
C364        H371   1.086       .  S
C364        C365   1.361       .  D
C365        C366   1.541       .  S
C366        C370   1.553       .  S
C366        C368   1.550       .  S
C366        H372   1.109       .  S
C367        H373   1.082       .  S
C367        C368   1.370       .  D
C368        C446   1.490       .  S
C369        H374   1.086       .  S
C369        C370   1.371       .  D
C370        C418   1.516       .  S
O375        C378   1.265       .  A
O375       Cd380   2.439       .  S
C376        O385   1.259       .  A
C376        O381   1.270       .  A
O377        C383   1.267       .  A
O377       Cd380   2.462       .  S
C378        O386   1.268       .  A
C378        C401   1.494       .  S
C379        O384   1.263       .  A
C379        O382   1.269       .  A
C379        C628   1.487       .  S
Cd380       O387   2.437       .  S
Cd380       O386   2.509       .  S
Cd380       O385   2.396       .  S
Cd380       O381   2.560       .  S
Cd380       O384   2.415       .  S
Cd380       O382   2.521       .  S
C383        O387   1.264       .  A
C383        C793   1.490       .  S
O388        C391   1.269       .  A
O388       Cd393   2.537       .  S
C389        O398   1.270       .  A
C389        O394   1.259       .  A
O390        C396   1.267       .  A
O390       Cd393   2.458       .  S
C391        O399   1.259       .  A
C391        C404   1.499       .  S
C392        O397   1.263       .  A
C392        O395   1.269       .  A
C392        C782   1.493       .  S
Cd393       O400   2.436       .  S
Cd393       O399   2.431       .  S
Cd393       O398   2.571       .  S
Cd393       O394   2.409       .  S
Cd393       O397   2.416       .  S
Cd393       O395   2.534       .  S
C396        O400   1.265       .  A
C396        C611   1.485       .  S
C401        C402   1.411   1_455  A
C401        C406   1.417       .  A
C402        C403   1.412       .  A
C402        C407   1.451       .  S
C403        C404   1.418   1_655  A
C403        C410   1.451       .  S
C404        C405   1.417       .  A
C405        C406   1.417       .  A
C405        C408   1.451   1_565  S
C406        C409   1.451   1_565  S
C407        N414   1.157       .  T
C408        N413   1.157       .  T
C409        N411   1.158       .  T
C410        N412   1.157       .  T
C415        C416   1.415       .  A
C415        C420   1.416       .  A
C416        C417   1.419       .  A
C416        C421   1.449       .  S
C417        C418   1.419       .  A
C417        C424   1.448       .  S
C418        C419   1.420       .  A
C419        C420   1.414       .  A
C419        C422   1.448       .  S
C420        C423   1.454       .  S
C421        N428   1.157   1_554  T
C422        N427   1.156       .  T
C423        N425   1.158   1_554  T
C424        N426   1.157       .  T
C429        C430   1.411       .  A
C429        C434   1.412       .  A
C430        C431   1.411       .  A
C430        C435   1.450   1_565  S
C431        C432   1.410       .  A
C431        C438   1.449       .  S
C432        C433   1.414       .  A
C433        C434   1.406       .  A
C433        C436   1.449   1_556  S
C434        C437   1.453   1_556  S
C435        N442   1.157       .  T
C436        N441   1.157       .  T
C437        N439   1.157       .  T
C438        N440   1.157       .  T
C443        C444   1.412       .  A
C443        C448   1.412       .  A
C444        C445   1.409       .  A
C444        C449   1.449       .  S
C445        C446   1.413   1_455  A
C445        C452   1.452   1_455  S
C446        C447   1.412       .  A
C447        C448   1.412   1_655  A
C447        C450   1.450       .  S
C448        C451   1.450       .  S
C449        N456   1.156       .  T
C450        N455   1.157       .  T
C451        N453   1.157       .  T
C452        N454   1.157       .  T
C457        C458   1.414       .  A
C457        C462   1.425       .  A
C458        C459   1.414       .  A
C458        C463   1.450       .  S
C459        C460   1.417       .  A
C459        C466   1.446   1_455  S
C460        C461   1.414       .  A
C461        C462   1.418       .  A
C461        C464   1.449   1_554  S
C462        C465   1.451   1_565  S
C463        N470   1.157       .  T
C464        N469   1.157       .  T
C465        N467   1.157       .  T
C466        N468   1.155       .  T
C471        C472   1.415       .  A
C471        C476   1.412       .  A
C472        C473   1.414       .  A
C472        C477   1.452       .  S
C473        C474   1.415       .  A
C473        C480   1.451       .  S
C474        C475   1.417       .  A
C475        C476   1.414       .  A
C475        C478   1.451       .  S
C476        C479   1.451       .  S
C477        N484   1.158       .  T
C478        N483   1.157       .  T
C479        N481   1.157       .  T
C480        N482   1.157       .  T
C485        C486   1.413       .  A
C485        C490   1.412       .  A
C486        C487   1.414       .  A
C486        C491   1.448       .  S
C487        C488   1.413       .  A
C487        C494   1.450       .  S
C488        C489   1.413       .  A
C489        C490   1.408       .  A
C489        C492   1.452       .  S
C490        C493   1.451       .  S
C491        N498   1.157       .  T
C492        N497   1.158       .  T
C493        N495   1.157       .  T
C494        N496   1.157       .  T
C499        C500   1.417       .  A
C499        C504   1.414       .  A
C500        C501   1.410       .  A
C500        C505   1.452       .  S
C501        C502   1.415       .  A
C501        C508   1.453       .  S
C502        C503   1.412       .  A
C503        C504   1.408       .  A
C503        C506   1.451       .  S
C504        C507   1.452       .  S
C505        N512   1.157       .  T
C506        N511   1.157       .  T
C507        N509   1.157       .  T
C508        N510   1.158       .  T
C513        C514   1.419       .  A
C513        C518   1.418       .  A
C514        C515   1.416       .  A
C514        C519   1.450       .  S
C515        C516   1.411       .  A
C515        C522   1.450       .  S
C516        C517   1.412       .  A
C517        C518   1.415       .  A
C517        C520   1.451       .  S
C518        C521   1.450       .  S
C519        N526   1.157       .  T
C520        N525   1.157       .  T
C521        N523   1.157       .  T
C522        N524   1.157       .  T
C527        C528   1.428       .  A
C527        C532   1.424       .  A
C528        C529   1.409       .  A
C528        C533   1.456       .  S
C529        C530   1.422       .  A
C529        C536   1.455       .  S
C530        C531   1.422       .  A
C531        C532   1.426       .  A
C531        C534   1.449       .  S
C532        C535   1.448       .  S
C533        N540   1.157       .  T
C534        N539   1.157       .  T
C535        N537   1.157   1_655  T
C536        N538   1.157       .  T
C541        C542   1.421       .  A
C541        C546   1.422       .  A
C542        C543   1.419       .  A
C542        C547   1.448       .  S
C543        C544   1.411       .  A
C543        C550   1.447       .  S
C544        C545   1.413       .  A
C545        C546   1.413       .  A
C545        C548   1.454       .  S
C546        C549   1.449       .  S
C547        N554   1.157       .  T
C548        N553   1.157       .  T
C549        N551   1.156       .  T
C550        N552   1.156       .  T
C555        C556   1.413       .  A
C555        C560   1.413       .  A
C556        C557   1.410       .  A
C556        C561   1.453       .  S
C557        C558   1.416   1_455  A
C557        C564   1.451       .  S
C558        C559   1.413       .  A
C559        C560   1.414   1_655  A
C559        C562   1.450       .  S
C560        C563   1.449       .  S
C561        N568   1.157       .  T
C562        N567   1.157       .  T
C563        N565   1.157       .  T
C564        N566   1.157   1_455  T
C569        C570   1.420       .  A
C569        C574   1.417       .  A
C570        C571   1.411       .  A
C570        C575   1.454       .  S
C571        C572   1.425       .  A
C571        C578   1.454       .  S
C572        C573   1.420       .  A
C573        C574   1.416       .  A
C573        C576   1.446   1_556  S
C574        C577   1.451   1_556  S
C575        N582   1.158       .  T
C576        N581   1.156       .  T
C577        N579   1.157       .  T
C578        N580   1.158       .  T
C583        C584   1.418       .  A
C583        C588   1.413       .  A
C584        C585   1.408       .  A
C584        C589   1.451   1_556  S
C585        C586   1.411       .  A
C585        C592   1.453       .  S
C586        C587   1.413       .  A
C587        C588   1.418       .  A
C587        C590   1.449       .  S
C588        C591   1.449       .  S
C589        N596   1.157       .  T
C590        N595   1.157       .  T
C591        N593   1.157       .  T
C592        N594   1.157   1_556  T
C597        C598   1.424       .  A
C597        C602   1.420       .  A
C598        C599   1.414       .  A
C598        C603   1.452       .  S
C599        C600   1.410       .  A
C599        C606   1.450       .  S
C600        C601   1.411       .  A
C601        C602   1.419       .  A
C601        C604   1.443       .  S
C602        C605   1.448   1_454  S
C603        N610   1.158       .  T
C604        N609   1.155       .  T
C605        N607   1.157       .  T
C606        N608   1.157       .  T
C611        C612   1.414       .  A
C611        C616   1.414       .  A
C612        C613   1.410       .  A
C612        C617   1.452       .  S
C613        C614   1.416       .  A
C613        C620   1.451       .  S
C614        C615   1.416       .  A
C615        C616   1.410       .  A
C615        C618   1.452       .  S
C616        C619   1.453       .  S
C617        N624   1.157       .  T
C618        N623   1.158       .  T
C619        N621   1.158       .  T
C620        N622   1.157       .  T
C625        C626   1.412       .  A
C625        C630   1.413   1_455  A
C626        C627   1.407       .  A
C626        C631   1.452       .  S
C627        C628   1.413       .  A
C627        C634   1.452       .  S
C628        C629   1.414   1_455  A
C629        C630   1.416       .  A
C629        C632   1.449       .  S
C630        C633   1.449       .  S
C631        N638   1.157       .  T
C632        N637   1.157       .  T
C633        N635   1.157       .  T
C634        N636   1.157       .  T
C639        C640   1.418       .  A
C639        C644   1.412   1_455  A
C640        C641   1.418       .  A
C640        C645   1.450       .  S
C641        C642   1.412       .  A
C641        C648   1.450       .  S
C642        C643   1.413       .  A
C643        C644   1.409   1_455  A
C643        C646   1.452   1_455  S
C644        C647   1.451       .  S
C645        N652   1.157       .  T
C646        N651   1.157       .  T
C647        N649   1.157       .  T
C648        N650   1.157       .  T
C653        C654   1.418       .  A
C653        C658   1.420       .  A
C654        C655   1.411       .  A
C654        C659   1.452       .  S
C655        C656   1.413       .  A
C655        C662   1.452       .  S
C656        C657   1.415       .  A
C657        C658   1.412       .  A
C657        C660   1.452       .  S
C658        C661   1.452       .  S
C659        N666   1.158       .  T
C660        N665   1.157       .  T
C661        N663   1.158       .  T
C662        N664   1.158       .  T
C667        C668   1.412       .  A
C667        C672   1.411       .  A
C668        C669   1.415       .  A
C668        C673   1.450       .  S
C669        C670   1.417       .  A
C669        C676   1.450       .  S
C670        C671   1.415       .  A
C671        C672   1.407       .  A
C671        C674   1.452       .  S
C672        C675   1.453       .  S
C673        N680   1.157       .  T
C674        N679   1.157       .  T
C675        N677   1.157       .  T
C676        N678   1.157       .  T
C681        C682   1.420       .  A
C681        C686   1.417       .  A
C682        C683   1.413       .  A
C682        C687   1.452       .  S
C683        C684   1.412       .  A
C683        C690   1.451       .  S
C684        C685   1.414       .  A
C685        C686   1.413       .  A
C685        C688   1.451       .  S
C686        C689   1.451       .  S
C687        N694   1.158       .  T
C688        N693   1.157       .  T
C689        N691   1.157       .  T
C690        N692   1.157       .  T
C695        C696   1.417       .  A
C695        C700   1.422       .  A
C696        C697   1.416       .  A
C696        C701   1.449   1_556  S
C697        C698   1.420       .  A
C697        C704   1.450   1_556  S
C698        C699   1.420       .  A
C699        C700   1.410       .  A
C699        C702   1.453       .  S
C700        C703   1.453       .  S
C701        N708   1.158       .  T
C702        N707   1.158       .  T
C703        N705   1.158       .  T
C704        N706   1.157       .  T
C709        C710   1.418       .  A
C709        C714   1.417       .  A
C710        C711   1.414       .  A
C710        C715   1.452       .  S
C711        C712   1.417       .  A
C711        C718   1.452       .  S
C712        C713   1.414       .  A
C713        C714   1.417       .  A
C713        C716   1.449       .  S
C714        C717   1.448       .  S
C715        N722   1.157       .  T
C716        N721   1.157       .  T
C717        N719   1.157       .  T
C718        N720   1.157       .  T
C723        C724   1.414       .  A
C723        C728   1.414       .  A
C724        C725   1.409       .  A
C724        C729   1.449   1_556  S
C725        C726   1.415   1_565  A
C725        C732   1.453   1_556  S
C726        C727   1.408       .  A
C727        C728   1.412   1_545  A
C727        C730   1.450       .  S
C728        C731   1.449       .  S
C729        N736   1.156       .  T
C730        N735   1.157       .  T
C731        N733   1.157       .  T
C732        N734   1.157       .  T
C737        C738   1.428   1_545  A
C737        C742   1.421       .  A
C738        C739   1.408       .  A
C738        C743   1.458       .  S
C739        C740   1.423   1_565  A
C739        C746   1.457       .  S
C740        C741   1.425       .  A
C741        C742   1.425       .  A
C741        C744   1.449       .  S
C742        C745   1.449       .  S
C743        N750   1.158       .  T
C744        N749   1.158       .  T
C745        N747   1.158       .  T
C746        N748   1.158       .  T
C751        C752   1.414       .  A
C751        C756   1.414       .  A
C752        C753   1.413       .  A
C752        C757   1.448       .  S
C753        C754   1.409       .  A
C753        C760   1.450       .  S
C754        C755   1.415       .  A
C755        C756   1.411       .  A
C755        C758   1.453       .  S
C756        C759   1.449       .  S
C757        N764   1.157       .  T
C758        N763   1.157       .  T
C759        N761   1.156       .  T
C760        N762   1.157       .  T
C765        C766   1.423       .  A
C765        C770   1.411       .  A
C766        C767   1.414       .  A
C766        C771   1.451       .  S
C767        C768   1.413       .  A
C767        C774   1.450       .  S
C768        C769   1.423       .  A
C769        C770   1.410       .  A
C769        C772   1.452   1_565  S
C770        C773   1.451   1_554  S
C771        N778   1.157       .  T
C772        N777   1.157       .  T
C773        N775   1.157       .  T
C774        N776   1.157       .  T
C779        C780   1.413       .  A
C779        C784   1.413       .  A
C780        C781   1.408       .  A
C780        C785   1.452       .  S
C781        C782   1.413       .  A
C781        C788   1.452   1_565  S
C782        C783   1.416       .  A
C783        C784   1.418       .  A
C783        C786   1.449       .  S
C784        C787   1.449       .  S
C785        N792   1.157       .  T
C786        N791   1.157       .  T
C787        N789   1.157       .  T
C788        N790   1.157       .  T
C793        C794   1.414       .  A
C793        C798   1.419       .  A
C794        C795   1.411       .  A
C794        C799   1.451       .  S
C795        C796   1.413       .  A
C795        C802   1.451       .  S
C796        C797   1.414       .  A
C797        C798   1.409       .  A
C797        C800   1.453   1_565  S
C798        C801   1.453   1_565  S
C799        N806   1.157       .  T
C800        N805   1.157       .  T
C801        N803   1.158       .  T
C802        N804   1.157       .  T
C807        C808   1.419   1_565  A
C807        C812   1.418       .  A
C808        C809   1.414       .  A
C808        C813   1.451       .  S
C809        C810   1.414   1_545  A
C809        C816   1.452       .  S
C810        C811   1.416       .  A
C811        C812   1.415       .  A
C811        C814   1.451       .  S
C812        C815   1.451       .  S
C813        N820   1.158       .  T
C814        N819   1.157       .  T
C815        N817   1.157       .  T
C816        N818   1.157       .  T
C821        C822   1.414       .  A
C821        C826   1.413       .  A
C822        C823   1.410       .  A
C822        C827   1.452       .  S
C823        C824   1.411       .  A
C823        C830   1.452       .  S
C824        C825   1.412       .  A
C825        C826   1.413       .  A
C825        C828   1.451       .  S
C826        C829   1.449       .  S
C827        N834   1.157       .  T
C828        N833   1.157       .  T
C829        N831   1.157       .  T
C830        N832   1.157       .  T
C835        C836   1.415       .  A
C835        C840   1.416       .  A
C836        C837   1.409       .  A
C836        C841   1.452       .  S
C837        C838   1.413       .  A
C837        C844   1.452       .  S
C838        C839   1.415       .  A
C839        C840   1.412       .  A
C839        C842   1.452       .  S
C840        C843   1.452       .  S
C841        N848   1.157       .  T
C842        N847   1.158       .  T
C843        N845   1.158       .  T
C844        N846   1.157       .  T
C849        C850   1.415       .  A
C849        C854   1.417       .  A
C850        C851   1.411       .  A
C850        C855   1.451       .  S
C851        C852   1.413       .  A
C851        C858   1.451       .  S
C852        C853   1.416       .  A
C853        C854   1.411       .  A
C853        C856   1.453       .  S
C854        C857   1.453       .  S
C855        N862   1.157       .  T
C856        N861   1.158       .  T
C857        N859   1.158       .  T
C858        N860   1.157       .  T
C863        C864   1.412       .  A
C863        C868   1.415       .  A
C864        C865   1.411       .  A
C864        C869   1.451       .  S
C865        C866   1.413       .  A
C865        C872   1.451       .  S
C866        C867   1.413       .  A
C867        C868   1.413       .  A
C867        C870   1.451       .  S
C868        C871   1.451       .  S
C869        N876   1.157       .  T
C870        N875   1.157       .  T
C871        N873   1.157       .  T
C872        N874   1.157       .  T
C877        C878   1.412       .  A
C877        C882   1.410       .  A
C878        C879   1.414       .  A
C878        C883   1.452       .  S
C879        C880   1.419       .  A
C879        C886   1.449       .  S
C880        C881   1.420       .  A
C881        C882   1.414       .  A
C881        C884   1.450       .  S
C882        C885   1.451       .  S
C883        N890   1.157       .  T
C884        N889   1.157       .  T
C885        N887   1.157       .  T
C886        N888   1.157       .  T
C891        C892   1.423       .  A
C891        C896   1.431       .  A
C892        C893   1.393       .  A
C892        C897   1.450       .  S
C893        C894   1.412       .  A
C893        C900   1.452       .  S
C894        C895   1.421       .  A
C895        C896   1.431       .  A
C895        C898   1.448   1_556  S
C896        C899   1.448   1_556  S
C897        N904   1.158       .  T
C898        N903   1.157       .  T
C899        N901   1.157       .  T
C900        N902   1.157       .  T
C905        C906   1.415       .  A
C905        C910   1.420       .  A
C906        C907   1.414       .  A
C906        C911   1.447       .  S
C907        C908   1.420       .  A
C907        C914   1.450       .  S
C908        C909   1.423       .  A
C909        C910   1.409       .  A
C909        C912   1.454       .  S
C910        C913   1.454       .  S
C911        N918   1.156       .  T
C912        N917   1.158       .  T
C913        N915   1.158       .  T
C914        N916   1.158       .  T
C919        C920   1.412       .  A
C919        C924   1.415       .  A
C920        C921   1.419       .  A
C920        C925   1.449       .  S
C921        C922   1.425       .  A
C921        C928   1.448       .  S
C922        C923   1.413       .  A
C923        C924   1.413       .  A
C923        C926   1.448   1_554  S
C924        C927   1.447       .  S
C925        N932   1.157       .  T
C926        N931   1.156       .  T
C927        N929   1.155       .  T
C928        N930   1.156       .  T
C933        C934   1.421       .  A
C933        C938   1.417       .  A
C934        C935   1.428       .  A
C934        C939   1.450       .  S
C935        C936   1.435       .  A
C935        C942   1.451       .  S
C936        C937   1.427       .  A
C937        C938   1.408       .  A
C937        C940   1.449       .  S
C938        C941   1.456       .  S
C939        N946   1.158       .  T
C940        N945   1.156       .  T
C941        N943   1.158       .  T
C942        N944   1.158       .  T
C947        C948   1.410       .  A
C947        C952   1.411       .  A
C948        C949   1.412       .  A
C948        C953   1.449       .  S
C949        C950   1.413       .  A
C949        C956   1.449       .  S
C950        C951   1.416       .  A
C951        C952   1.407       .  A
C951        C954   1.448       .  S
C952        C955   1.453       .  S
C953        N960   1.157       .  T
C954        N959   1.156       .  T
C955        N957   1.157       .  T
C956        N958   1.157       .  T
C961        C962   1.429       .  A
C961        C966   1.426       .  A
C962        C963   1.418       .  A
C962        C967   1.455       .  S
C963        C964   1.422       .  A
C963        C970   1.452       .  S
C964        C965   1.424       .  A
C965        C966   1.415       .  A
C965        C968   1.458       .  S
C966        C969   1.450       .  S
C967        N974   1.158       .  T
C968        N973   1.158       .  T
C969        N971   1.157       .  T
C970        N972   1.158       .  T
C975        C976   1.408       .  A
C975        C980   1.413       .  A
C976        C977   1.408       .  A
C976        C981   1.451       .  S
C977        C978   1.413       .  A
C977        C984   1.450       .  S
C978        C979   1.412       .  A
C979        C980   1.413       .  A
C979        C982   1.449   1_556  S
C980        C983   1.452   1_556  S
C981        N988   1.157       .  T
C982        N987   1.157       .  T
C983        N985   1.157       .  T
C984        N986   1.157       .  T
C989        C990   1.405       .  A
C989        C994   1.401       .  A
C990        C991   1.416       .  A
C990        C995   1.448       .  S
C991        C992   1.426       .  A
C991        C998   1.447       .  S
C992        C993   1.432       .  A
C993        C994   1.411       .  A
C993        C996   1.447       .  S
C994        C997   1.453   1_554  S
C995       N1002   1.157       .  T
C996       N1001   1.156       .  T
C997        N999   1.157       .  T
C998       N1000   1.157       .  T
C1003      C1004   1.411       .  A
C1003      C1008   1.414       .  A
C1004      C1005   1.409       .  A
C1004      C1009   1.452       .  S
C1005      C1006   1.415       .  A
C1005      C1012   1.451       .  S
C1006      C1007   1.417       .  A
C1007      C1008   1.414       .  A
C1007      C1010   1.451       .  S
C1008      C1011   1.451       .  S
C1009      N1016   1.157       .  T
C1010      N1015   1.158       .  T
C1011      N1013   1.157       .  T
C1012      N1014   1.157       .  T
C1017      C1018   1.414       .  A
C1017      C1022   1.413       .  A
C1018      C1019   1.412       .  A
C1018      C1023   1.452       .  S
C1019      C1020   1.414       .  A
C1019      C1026   1.452       .  S
C1020      C1021   1.415       .  A
C1021      C1022   1.406       .  A
C1021      C1024   1.453       .  S
C1022      C1025   1.454       .  S
C1023      N1030   1.158       .  T
C1024      N1029   1.157       .  T
C1025      N1027   1.157       .  T
C1026      N1028   1.158       .  T
C1031      C1032   1.416       .  A
C1031      C1036   1.414       .  A
C1032      C1033   1.410       .  A
C1032      C1037   1.454       .  S
C1033      C1034   1.418       .  A
C1033      C1040   1.454       .  S
C1034      C1035   1.416       .  A
C1035      C1036   1.412       .  A
C1035      C1038   1.451       .  S
C1036      C1039   1.452       .  S
C1037      N1044   1.158       .  T
C1038      N1043   1.157       .  T
C1039      N1041   1.158       .  T
C1040      N1042   1.158       .  T
C1045      C1046   1.417       .  A
C1045      C1050   1.414       .  A
C1046      C1047   1.417       .  A
C1046      C1051   1.450       .  S
C1047      C1048   1.412       .  A
C1047      C1054   1.450       .  S
C1048      C1049   1.412       .  A
C1049      C1050   1.407       .  A
C1049      C1052   1.453       .  S
C1050      C1053   1.452       .  S
C1051      N1058   1.157       .  T
C1052      N1057   1.157       .  T
C1053      N1055   1.157       .  T
C1054      N1056   1.157       .  T
C1059      C1060   1.414       .  A
C1059      C1064   1.416       .  A
C1060      C1061   1.414       .  A
C1060      C1065   1.450       .  S
C1061      C1062   1.418       .  A
C1061      C1068   1.452       .  S
C1062      C1063   1.414       .  A
C1063      C1064   1.415       .  A
C1063      C1066   1.450       .  S
C1064      C1067   1.451       .  S
C1065      N1072   1.157       .  T
C1066      N1071   1.157       .  T
C1067      N1069   1.157       .  T
C1068      N1070   1.158       .  T
