geometry optimzed in LAMMPS
_audit_creation_date              2020-11-30 
_audit_creation_method            'lammps2cif' 
_symmetry_space_group_name_H-M    'P1' 
_symmetry_Int_Tables_number       1 
_symmetry_cell_setting            triclinic 
loop_ 
_symmetry_equiv_pos_as_xyz 
  x,y,z 
_cell_length_a                    32.98038399 
_cell_length_b                    39.75437195683385 
_cell_length_c                    36.298632083008265 
_cell_angle_alpha                 90.08863074758926 
_cell_angle_beta                  90.088065419585 
_cell_angle_gamma                 90.05732409230298 
loop_ 
_atom_site_label 
_atom_site_type_symbol 
_atom_site_fract_x 
_atom_site_fract_y 
_atom_site_fract_z 
_atom_site_charge 
N1          N  0.50230750  0.54823807  0.49018370    -0.36400
N2          N  0.56203222  0.49503597  0.99510598    -0.56900
N3          N  0.49549153  0.44699086  0.99744074    -0.36400
N4          N  0.43594462  0.49991411  0.49418609    -0.56900
C5          C  0.53660423  0.56591583  0.49696936     0.27200
C6          C  0.47058892  0.56846171  0.49826022     0.27200
C7          C  0.52705281  0.42752217  0.00764791     0.27200
C8          C  0.46119152  0.43009300  0.00600446     0.27200
C9          C  0.58704349  0.52050290  0.98553199     0.35800
C10         C  0.58274361  0.46622136  0.98955436     0.35800
C11         C  0.41539564  0.52781166  0.48450833     0.35800
C12         C  0.41127113  0.47358559  0.48696800     0.35800
C13         C  0.52658495  0.59780616  0.50949431    -0.21700
C14         C  0.48486328  0.59937689  0.51043869    -0.21700
C15         C  0.51269519  0.39803560  0.02337193    -0.21700
C16         C  0.47100008  0.39964476  0.02225991    -0.21700
C17         C  0.62412895  0.50787565  0.97420760    -0.22700
C18         C  0.62140867  0.47337477  0.97676238    -0.22700
C19         C  0.37722151  0.51923472  0.47135863    -0.22700
C20         C  0.37462599  0.48472937  0.47291484    -0.22700
C21         C  0.57642033  0.55488261  0.48892676    -0.18100
C22         C  0.42943947  0.56087167  0.49081301    -0.18100
C23         C  0.42177341  0.43985102  0.99524188    -0.18100
C24         C  0.56797127  0.43385869  0.99853445    -0.18100
H25         H  0.54718661  0.61806010  0.51646005     0.14800
H26         H  0.46704711  0.62114889  0.51804872     0.14800
H27         H  0.53043274  0.37699474  0.03324401     0.14800
H28         H  0.45028124  0.38016671  0.03117761     0.14800
H29         H  0.65049049  0.52204518  0.96559594     0.13100
H30         H  0.64530171  0.45563640  0.97047562     0.13100
H31         H  0.35352266  0.53610227  0.46222235     0.13100
H32         H  0.34861314  0.46964583  0.46521915     0.13100
H33         H  0.50057386  0.52554562  0.47598952     0.26400
H34         H  0.49732608  0.46785549  0.98028426     0.26400
N35         N  0.00362671  0.05107154  0.48104207    -0.36400
N36         N  0.93737096  0.00167002  0.48376568    -0.56900
N37         N  0.99723037  0.94842044  0.49049580    -0.36400
N38         N  0.06341852  0.99775800  0.48864847    -0.56900
C39         C  0.97152194  0.07194953  0.48518060     0.27200
C40         C  0.03761917  0.06974276  0.48602615     0.27200
C41         C  0.96324999  0.92930162  0.48894729     0.27200
C42         C  0.02923823  0.92724800  0.49228932     0.27200
C43         C  0.91488675  0.02978467  0.47996382     0.35800
C44         C  0.91158580  0.97525853  0.48195276     0.35800
C45         C  0.08934270  0.02375598  0.48450344     0.35800
C46         C  0.08605894  0.96950959  0.48884179     0.35800
C47         C  0.98540155  0.10438547  0.49179711    -0.21700
C48         C  0.02695564  0.10300317  0.49224853    -0.21700
C49         C  0.97390232  0.89557711  0.49074129    -0.21700
C50         C  0.01533397  0.89429140  0.49294097    -0.21700
C51         C  0.87434923  0.02121849  0.47580805    -0.22700
C52         C  0.87227869  0.98669370  0.47703942    -0.22700
C53         C  0.12883908  0.01204698  0.48248781    -0.22700
C54         C  0.12676968  0.97767313  0.48527960    -0.22700
C55         C  0.92994915  0.06312155  0.48201975    -0.18100
C56         C  0.07816820  0.05802798  0.48429295    -0.18100
C57         C  0.07082067  0.93631510  0.49149779    -0.18100
C58         C  0.92279793  0.94096603  0.48509196    -0.18100
H59         H  0.96749112  0.12687925  0.49585888     0.14800
H60         H  0.04699141  0.12418564  0.49680999     0.14800
H61         H  0.95399920  0.87392803  0.48989163     0.14800
H62         H  0.03317502  0.87147722  0.49402198     0.14800
H63         H  0.84885169  0.03807682  0.47254157     0.13100
H64         H  0.84494599  0.97174609  0.47471627     0.13100
H65         H  0.15629263  0.02672540  0.47949708     0.13100
H66         H  0.15232943  0.96063170  0.48450218     0.13100
H67         H  0.00249300  0.02667695  0.47168129     0.26400
H68         H  0.99864895  0.97396081  0.49054148     0.26400
O69         O  0.16171282  0.26722137  0.02662304    -0.78300
C70         C  0.16977599  0.28359012  0.41183667     0.82800
O71         O  0.22886475  0.16709759  0.47763793    -0.79400
O72         O  0.29582131  0.25025834  0.40135966    -0.80900
O73         O  0.29907187  0.31353296  0.01294287    -0.80700
O74         O  0.21424239  0.28944210  0.05671691    -0.79300
Zn75       Zn  0.18505339  0.24472555  0.48276422     1.55700
O76         O  0.29140602  0.32026057  0.45364083    -0.80700
Cd77       Cd  0.26245306  0.27299994  0.02524866     1.59700
Cd78       Cd  0.27137696  0.20549632  0.47711938     1.59600
O79         O  0.29680640  0.24101793  0.05722809    -0.80700
O80         O  0.24353222  0.25011810  0.48064341    -1.91200
Cd81       Cd  0.25887235  0.27777201  0.43695130     1.59900
O82         O  0.31020491  0.19787286  0.02016453    -0.80600
O83         O  0.20704429  0.29156409  0.40798920    -0.79300
C84         C  0.19045776  0.16822456  0.48119616     0.83200
C85         C  0.17636807  0.28392411  0.05350899     0.82900
O86         O  0.15762369  0.26515695  0.43828301    -0.78200
C87         C  0.30644865  0.32929851  0.48458279     0.83700
O88         O  0.17105388  0.19576271  0.48399103    -0.78300
C89         C  0.31530757  0.21361482  0.05044601     0.83800
C90         C  0.31174699  0.22107567  0.40212137     0.84200
O91         O  0.30520617  0.20177094  0.42937161    -0.80800
O92         O  0.83508474  0.27383260  0.43611985    -0.78300
C93         C  0.81973828  0.28935354  0.05214376     0.82800
O94         O  0.78089063  0.17059572  0.47813535    -0.79400
O95         O  0.70809949  0.23510575  0.06002298    -0.80900
O96         O  0.69923434  0.31909311  0.45949980    -0.80700
O97         O  0.78165284  0.29695462  0.40817353    -0.79300
Zn98       Zn  0.81361006  0.25147444  0.48159463     1.55700
O99         O  0.69223901  0.30706532  0.01844624    -0.80700
Cd100      Cd  0.73404027  0.27944061  0.44026282     1.59700
Cd101      Cd  0.73346254  0.20471986  0.47804516     1.59600
O102        O  0.69654015  0.25072620  0.40688923    -0.80700
O103        O  0.75502182  0.25158638  0.48173206    -1.91200
Cd104      Cd  0.73507817  0.27038934  0.02741022     1.59900
O105        O  0.70123797  0.19884905  0.42948637    -0.80600
O106        O  0.78167326  0.29078717  0.05715520    -0.79300
C107        C  0.81909071  0.17505625  0.48023265     0.83200
C108        C  0.81962567  0.29118850  0.41025946     0.82900
O109        O  0.83527294  0.27496532  0.02414350    -0.78200
C110        C  0.68324566  0.32508362  0.49079476     0.83700
O111        O  0.83501623  0.20418280  0.48219223    -0.78300
C112        C  0.68792097  0.21948272  0.40549697     0.83800
C113        C  0.69010689  0.20762825  0.05272199     0.84200
O114        O  0.69416896  0.19303681  0.02158696    -0.80800
O115        O  0.83465894  0.72806444  0.02900862    -0.78300
C116        C  0.81566727  0.71651141  0.40912977     0.82800
O117        O  0.77421789  0.83139218  0.48743218    -0.79400
O118        O  0.68965086  0.75730224  0.41318171    -0.80900
O119        O  0.69807744  0.68164967  0.01387514    -0.80700
O120        O  0.78174155  0.70645721  0.05907678    -0.79300
Zn121      Zn  0.81024657  0.75087884  0.48448464     1.55700
O122        O  0.70084025  0.68085024  0.45206723    -0.80700
Cd123      Cd  0.73305352  0.72297120  0.02873712     1.59700
Cd124      Cd  0.72826652  0.79579467  0.48884622     1.59600
O125        O  0.69815779  0.75220814  0.06283858    -0.80700
O126        O  0.75120919  0.74898152  0.48527644    -1.91200
Cd127      Cd  0.73029237  0.72604427  0.44000215     1.59900
O128        O  0.69474376  0.80283043  0.03673148    -0.80600
O129        O  0.77741280  0.71506477  0.40459415    -0.79300
C130        C  0.81254294  0.82813468  0.48489975     0.83200
C131        C  0.81966926  0.71136187  0.05572253     0.82900
O132        O  0.83176114  0.72828995  0.43840263    -0.78200
C133        C  0.68896844  0.66748666  0.48209455     0.83700
O134        O  0.82963723  0.79939321  0.48356437    -0.78300
C135        C  0.68494144  0.78226519  0.06219705     0.83800
C136        C  0.67735839  0.78737387  0.41830622     0.84200
O137        O  0.68978663  0.80547181  0.44502850    -0.80800
O138        O  0.16528351  0.72393968  0.43982609    -0.78300
C139        C  0.18212875  0.70525875  0.05522981     0.82800
O140        O  0.21669204  0.82799447  0.48757278    -0.79400
O141        O  0.29914499  0.75565404  0.06064588    -0.80900
O142        O  0.30086421  0.68262875  0.45296177    -0.80700
O143        O  0.21985824  0.70840884  0.40772171    -0.79300
Zn144      Zn  0.18655443  0.74633548  0.48552057     1.55700
O145        O  0.30484422  0.68379792  0.01385645    -0.80700
Cd146      Cd  0.26668600  0.72465691  0.44002625     1.59700
Cd147      Cd  0.26492704  0.79517000  0.48504101     1.59600
O148        O  0.30094485  0.75771787  0.40877987    -0.80700
O149        O  0.24533575  0.74747054  0.48477733    -1.91200
Cd150      Cd  0.26673047  0.72302948  0.02808637     1.59900
O151        O  0.29891064  0.80645097  0.43896799    -0.80600
O152        O  0.22036293  0.70334910  0.05917284    -0.79300
C153        C  0.17862621  0.82276559  0.48824723     0.83200
C154        C  0.18170201  0.71040095  0.41177911     0.82900
O155        O  0.16571105  0.72054691  0.02826545    -0.78200
C156        C  0.31369718  0.67045795  0.48321418     0.83700
O157        O  0.16342608  0.79330580  0.48761239    -0.78300
C158        C  0.31081274  0.78863804  0.41192875     0.83800
C159        C  0.31244002  0.78548859  0.05652739     0.84200
O160        O  0.30285051  0.80348153  0.02891229    -0.80800
N161        N  0.99439216  0.34093428  0.31725080    -0.36400
N162        N  0.05997929  0.34241966  0.23283973    -0.56900
N163        N  0.99626277  0.34284122  0.17844910    -0.36400
N164        N  0.93127141  0.35122265  0.23244482    -0.56900
C165        C  0.02865636  0.35551600  0.30440242     0.27200
C166        C  0.96324368  0.35975901  0.30444936     0.27200
C167        C  0.02943399  0.34342633  0.15640561     0.27200
C168        C  0.96356458  0.34767678  0.15651663     0.27200
C169        C  0.08138240  0.33496127  0.26346248     0.35800
C170        C  0.08229014  0.33223228  0.20392346     0.35800
C171        C  0.90813695  0.34617088  0.26260186     0.35800
C172        C  0.90859145  0.34224460  0.20324651     0.35800
C173        C  0.01932945  0.38503695  0.28606690    -0.21700
C174        C  0.97798884  0.38780669  0.28624919    -0.21700
C175        C  0.01761401  0.34972027  0.12038345    -0.21700
C176        C  0.97614849  0.35250450  0.12048484    -0.21700
C177        C  0.11828245  0.32079430  0.25408072    -0.22700
C178        C  0.11904941  0.31936196  0.21612010    -0.22700
C179        C  0.86984737  0.33516955  0.25250092    -0.22700
C180        C  0.87008992  0.33275554  0.21466073    -0.22700
C181        C  0.06522503  0.33807904  0.29925723    -0.18100
C182        C  0.92403693  0.34697337  0.29866829    -0.18100
C183        C  0.92283156  0.34157224  0.16667399    -0.18100
C184        C  0.06918456  0.33382926  0.16690638    -0.18100
H185        H  0.04004614  0.40096863  0.27090745     0.14800
H186        H  0.96048137  0.40623983  0.27114195     0.14800
H187        H  0.03664239  0.35054433  0.09614899     0.14800
H188        H  0.95716881  0.35569711  0.09638699     0.14800
H189        H  0.14157508  0.31168270  0.27256363     0.13100
H190        H  0.14326930  0.30904771  0.19950636     0.13100
H191        H  0.84509642  0.32822049  0.27050070     0.13100
H192        H  0.84528511  0.32392821  0.19763863     0.13100
H193        H  0.99210885  0.31653399  0.32772007     0.26400
H194        H  0.99524553  0.33416618  0.20544616     0.26400
N195        N  0.00037177  0.64935166  0.17531855    -0.36400
N196        N  0.06183778  0.65531405  0.23281179    -0.56900
N197        N  0.99971473  0.66370668  0.28840272    -0.36400
N198        N  0.93845136  0.65806086  0.23192589    -0.56900
C199        C  0.03355004  0.65644779  0.15481196     0.27200
C200        C  0.96765413  0.65697246  0.15436546     0.27200
C201        C  0.03292574  0.67377424  0.30729020     0.27200
C202        C  0.96711571  0.67634556  0.30627669     0.27200
C203        C  0.08631957  0.65030870  0.20358613     0.35800
C204        C  0.08595467  0.65541697  0.26286708     0.35800
C205        C  0.91441750  0.65188813  0.20260746     0.35800
C206        C  0.91396530  0.65906252  0.26166199     0.35800
C207        C  0.02167834  0.66664165  0.11988353    -0.21700
C208        C  0.98021128  0.66692535  0.11958993    -0.21700
C209        C  0.02120626  0.69225530  0.33796475    -0.21700
C210        C  0.97973250  0.69408096  0.33715483    -0.21700
C211        C  0.12612034  0.64653818  0.21513675    -0.22700
C212        C  0.12586915  0.64955702  0.25280609    -0.22700
C213        C  0.87452371  0.64817656  0.21382695    -0.22700
C214        C  0.87427198  0.65247100  0.25139250    -0.22700
C215        C  0.07437669  0.65524442  0.16672302    -0.18100
C216        C  0.92668776  0.65660092  0.16584705    -0.18100
C217        C  0.92611492  0.67108240  0.29653063    -0.18100
C218        C  0.07359168  0.66652740  0.29797074    -0.18100
H219        H  0.04085151  0.67407439  0.09712907     0.14800
H220        H  0.96149464  0.67459142  0.09657530     0.14800
H221        H  0.04047019  0.70357501  0.35872425     0.14800
H222        H  0.96100736  0.70695433  0.35716179     0.14800
H223        H  0.15275089  0.64370475  0.19801990     0.13100
H224        H  0.15233015  0.64962359  0.27048499     0.13100
H225        H  0.84814071  0.64463238  0.19647219     0.13100
H226        H  0.84765321  0.65283921  0.26879066     0.13100
H227        H  0.00000986  0.63908569  0.20162625     0.26400
H228        H  0.99924939  0.64662948  0.26668590     0.26400
N229        N  0.49564988  0.82925926  0.18242762    -0.36400
N230        N  0.55583017  0.82757068  0.24048035    -0.56900
N231        N  0.49102779  0.83974935  0.29210113    -0.36400
N232        N  0.43002993  0.84394786  0.23397842    -0.56900
C233        C  0.53019247  0.82963784  0.16243792     0.27200
C234        C  0.46490866  0.83720569  0.15941663     0.27200
C235        C  0.52350264  0.84295740  0.31465957     0.27200
C236        C  0.45798604  0.84986148  0.31104842     0.27200
C237        C  0.57811571  0.81474893  0.21263107     0.35800
C238        C  0.57549799  0.81985573  0.27199419     0.35800
C239        C  0.40835185  0.83431869  0.20417860     0.35800
C240        C  0.40562851  0.83894304  0.26330859     0.35800
C241        C  0.52132243  0.83835519  0.12632053    -0.21700
C242        C  0.48001069  0.84296960  0.12438797    -0.21700
C243        C  0.51106286  0.85626344  0.34813168    -0.21700
C244        C  0.46959733  0.86031748  0.34594848    -0.21700
C245        C  0.61269353  0.79946304  0.22635425    -0.22700
C246        C  0.61097552  0.80258087  0.26405230    -0.22700
C247        C  0.36952936  0.82479468  0.21438731    -0.22700
C248        C  0.36782792  0.82765922  0.25195150    -0.22700
C249        C  0.56842127  0.81824223  0.17493341    -0.18100
C250        C  0.42343467  0.83340188  0.16790589    -0.18100
C251        C  0.41760783  0.84291226  0.30035548    -0.18100
C252        C  0.56242137  0.82926486  0.30767785    -0.18100
H253        H  0.54218989  0.83972750  0.10338574     0.14800
H254        H  0.46276902  0.84840099  0.09970953     0.14800
H255        H  0.52953376  0.86051347  0.37237057     0.14800
H256        H  0.44987602  0.86814402  0.36817009     0.14800
H257        H  0.63656500  0.78731753  0.21083784     0.13100
H258        H  0.63331488  0.79323088  0.28334540     0.13100
H259        H  0.34534579  0.81576320  0.19676564     0.13100
H260        H  0.34206700  0.82126631  0.26900470     0.13100
H261        H  0.49223307  0.81849447  0.20825659     0.26400
H262        H  0.49008864  0.82543272  0.26823244     0.26400
N263        N  0.50260903  0.15375289  0.16936404    -0.36400
N264        N  0.56424345  0.16082258  0.22686410    -0.56900
N265        N  0.50258711  0.17278028  0.28183285    -0.36400
N266        N  0.44105282  0.16666587  0.22547066    -0.56900
C267        C  0.53627132  0.15811174  0.14855962     0.27200
C268        C  0.47037818  0.16155638  0.14780947     0.27200
C269        C  0.53606999  0.18419222  0.29947808     0.27200
C270        C  0.47010097  0.18592019  0.29944197     0.27200
C271        C  0.58820184  0.15239407  0.19821225     0.35800
C272        C  0.58799070  0.16069284  0.25721517     0.35800
C273        C  0.41670523  0.16121987  0.19614548     0.35800
C274        C  0.41656716  0.16859058  0.25518967     0.35800
C275        C  0.52503048  0.16644195  0.11285356    -0.21700
C276        C  0.48357588  0.16862174  0.11239698    -0.21700
C277        C  0.52460697  0.20458570  0.32873664    -0.21700
C278        C  0.48298845  0.20537403  0.32893165    -0.21700
C279        C  0.62730597  0.14623230  0.21048742    -0.22700
C280        C  0.62699497  0.15082041  0.24803303    -0.22700
C281        C  0.37661569  0.15924380  0.20733650    -0.22700
C282        C  0.37656356  0.16354887  0.24484312    -0.22700
C283        C  0.57703908  0.15658885  0.16098056    -0.18100
C284        C  0.42938586  0.16374147  0.15918294    -0.18100
C285        C  0.42905773  0.18014588  0.29017149    -0.18100
C286        C  0.57661054  0.17515166  0.29126361    -0.20500
H287        H  0.54470281  0.17144591  0.08965624     0.14800
H288        H  0.46534245  0.17560367  0.08880653     0.14800
H289        H  0.54416996  0.21739906  0.34819117     0.14800
H290        H  0.46436833  0.21900543  0.34840482     0.14800
H291        H  0.65369557  0.14060279  0.19392165     0.13100
H292        H  0.65315181  0.14960633  0.26602398     0.13100
H293        H  0.35003209  0.15643746  0.19008866     0.13100
H294        H  0.34992226  0.16488545  0.26215750     0.13100
H295        H  0.50166002  0.14538407  0.19644290     0.26400
H296        H  0.50175453  0.15435819  0.26146070     0.26400
C297        C  0.33771821  0.83201344  0.09775099    -0.01600
C298        C  0.34124619  0.79879968  0.08406025     0.08100
C299        C  0.37266042  0.77775547  0.09704348    -0.01700
C300        C  0.39857241  0.78902763  0.12503585    -0.01700
C301        C  0.39575196  0.82233416  0.13800961     0.08200
C302        C  0.36559371  0.84394960  0.12413805    -0.01900
Br303      Br  0.36211270  0.88956291  0.14208009    -0.00500
Br304      Br  0.29360354  0.86069690  0.08235373    -0.00600
Br305      Br  0.43634246  0.75793404  0.14730478    -0.00500
Br306      Br  0.38237793  0.73397383  0.07532058    -0.00500
C307        C  0.37102776  0.78488352  0.37048489    -0.01600
C308        C  0.33793830  0.80376088  0.38384082     0.08100
C309        C  0.33121548  0.83657002  0.36982746    -0.01700
C310        C  0.35766347  0.85003768  0.34304530    -0.01700
C311        C  0.38972154  0.83036815  0.32929762     0.08200
C312        C  0.39502088  0.79726484  0.34185889    -0.01900
Br313      Br  0.43336370  0.76775893  0.31784488    -0.00500
Br314      Br  0.38718694  0.74359961  0.39364982    -0.00600
Br315      Br  0.34933956  0.89469250  0.32389776    -0.00500
Br316      Br  0.28529325  0.86282387  0.38586269    -0.00500
C317        C  0.14057705  0.71360192  0.11100563    -0.01600
C318        C  0.15608901  0.69153123  0.08423322     0.08100
C319        C  0.14666731  0.65698493  0.08545803    -0.01700
C320        C  0.12153288  0.64453169  0.11364765    -0.01700
C321        C  0.10562642  0.66674774  0.14019034     0.08200
C322        C  0.11523813  0.70130256  0.13886035    -0.01900
Br323      Br  0.09165532  0.73218335  0.17393728    -0.00500
Br324      Br  0.15348561  0.76095628  0.10891777    -0.00600
Br325      Br  0.10750437  0.59749274  0.11542908    -0.00500
Br326      Br  0.16640318  0.62731690  0.04747305    -0.00500
C327        C  0.11816699  0.71017800  0.32602704    -0.01600
C328        C  0.10520274  0.67642161  0.32486281     0.08100
C329        C  0.11920512  0.65320752  0.35123102    -0.01700
C330        C  0.14453042  0.66422563  0.37999352    -0.01700
C331        C  0.15583416  0.69830413  0.38196301     0.08200
C332        C  0.14327172  0.72113652  0.35475963    -0.01900
Br333      Br  0.16010824  0.76756481  0.35730435    -0.00500
Br334      Br  0.10037036  0.74156981  0.28885205    -0.00600
Br335      Br  0.16291547  0.63315784  0.41720316    -0.00500
Br336      Br  0.10348718  0.60660703  0.34780454    -0.00500
C337        C  0.60890700  0.78447710  0.38989198    -0.01600
C338        C  0.64650575  0.80099993  0.39296485     0.08100
C339        C  0.65472974  0.82932983  0.37084844    -0.01700
C340        C  0.62596102  0.84011266  0.34463055    -0.01700
C341        C  0.58972780  0.82176065  0.33945170     0.08200
C342        C  0.58111957  0.79417638  0.36258896    -0.01900
Br343      Br  0.53256176  0.76801335  0.35560916    -0.00500
Br344      Br  0.59505697  0.74893441  0.42387804    -0.00600
Br345      Br  0.63637512  0.87950019  0.31515541    -0.00500
Br346      Br  0.70634210  0.85193458  0.37472916    -0.00500
C347        C  0.65958984  0.82272402  0.11081554    -0.01600
C348        C  0.65542459  0.79228260  0.09097274     0.08100
C349        C  0.62260387  0.77051498  0.09895748    -0.01700
C350        C  0.59530063  0.77846322  0.12731932    -0.01700
C351        C  0.59929246  0.80890845  0.14683895     0.08200
C352        C  0.63127654  0.83111437  0.13842697    -0.01900
Br353      Br  0.63553584  0.87333034  0.16446896    -0.00500
Br354      Br  0.70448674  0.85257488  0.10127200    -0.00600
Br355      Br  0.55233931  0.74744796  0.13964203    -0.00500
Br356      Br  0.61274587  0.73076514  0.06935145    -0.00500
C357        C  0.84718304  0.72319698  0.34713939    -0.01600
C358        C  0.84218560  0.70414255  0.37950115     0.08100
C359        C  0.86290960  0.67343888  0.38373413    -0.01700
C360        C  0.88857607  0.66173741  0.35560952    -0.01700
C361        C  0.89463339  0.68125128  0.32370017     0.08200
C362        C  0.87394579  0.71208572  0.31953816    -0.01900
Br363      Br  0.88415303  0.74007591  0.27715666    -0.00500
Br364      Br  0.81878094  0.76532109  0.34153671    -0.00600
Br365      Br  0.91615442  0.61922998  0.36089751    -0.00500
Br366      Br  0.85621762  0.64754565  0.42822613    -0.00500
C367        C  0.86600269  0.71859660  0.10945766    -0.01600
C368        C  0.84673648  0.69717694  0.08393813     0.08100
C369        C  0.85170566  0.66202643  0.08657499    -0.01700
C370        C  0.87686578  0.64835697  0.11407425    -0.01700
C371        C  0.89618105  0.66980669  0.13947158     0.08200
C372        C  0.89013528  0.70489040  0.13756032    -0.01900
Br373      Br  0.91581263  0.73420154  0.17316260    -0.00500
Br374      Br  0.85907864  0.76669281  0.10615310    -0.00600
Br375      Br  0.88557971  0.60050233  0.11679336    -0.00500
Br376      Br  0.82524063  0.63278555  0.05156533    -0.00500
C377        C  0.63697083  0.21596979  0.10093934    -0.01600
C378        C  0.66240798  0.19373558  0.08104996     0.08100
C379        C  0.66116596  0.15889457  0.08890587    -0.01700
C380        C  0.63318776  0.14634408  0.11487665    -0.01700
C381        C  0.60881167  0.16875264  0.13512327     0.08200
C382        C  0.61191915  0.20363853  0.12900523    -0.01900
Br383      Br  0.58061210  0.23466438  0.15868137    -0.00500
Br384      Br  0.63304383  0.26317206  0.08820890    -0.00600
Br385      Br  0.62749690  0.09860570  0.12238306    -0.00500
Br386      Br  0.69902737  0.12847150  0.06590477    -0.00500
C387        C  0.63210534  0.18152339  0.38268853    -0.01600
C388        C  0.66126768  0.20681435  0.37540624     0.08100
C389        C  0.66413824  0.22023539  0.33935952    -0.01700
C390        C  0.63653390  0.21005528  0.31185404    -0.01700
C391        C  0.60852873  0.18396638  0.31894722     0.08200
C392        C  0.60771359  0.16883714  0.35404173    -0.01900
Br393      Br  0.57219598  0.13106486  0.36311170    -0.00500
Br394      Br  0.62157113  0.16657120  0.43245402    -0.00600
Br395      Br  0.63559102  0.23354254  0.26525300    -0.00500
Br396      Br  0.70639655  0.25190631  0.32661910    -0.00500
C397        C  0.84291965  0.33730300  0.09157294    -0.01600
C398        C  0.84655180  0.30335952  0.08061192     0.08100
C399        C  0.87448505  0.28203356  0.09839230    -0.01700
C400        C  0.89892677  0.29467079  0.12682631    -0.01700
C401        C  0.89547598  0.32860917  0.13760636     0.08200
C402        C  0.86744884  0.34992636  0.12013072    -0.01900
Br403      Br  0.86335546  0.39635953  0.13510668    -0.00500
Br404      Br  0.80565407  0.36685390  0.06656141    -0.00600
Br405      Br  0.93687072  0.26531535  0.15157716    -0.00500
Br406      Br  0.87786811  0.23495806  0.08533518    -0.00500
C407        C  0.85621988  0.33974748  0.38255625    -0.01600
C408        C  0.84692570  0.30521546  0.38218342     0.08100
C409        C  0.86505372  0.28387728  0.35596219    -0.01700
C410        C  0.89245291  0.29708166  0.33004273    -0.01700
C411        C  0.90072326  0.33194246  0.32950889     0.08200
C412        C  0.88274178  0.35317725  0.35604613    -0.01900
Br413      Br  0.89289584  0.40096422  0.35514293    -0.00500
Br414      Br  0.83276147  0.36848714  0.41975311    -0.00600
Br415      Br  0.91862104  0.26742001  0.29526830    -0.00500
Br416      Br  0.85067608  0.23685481  0.35449068    -0.00500
C417        C  0.38093209  0.22247102  0.31669455    -0.01600
C418        C  0.39735498  0.18993830  0.31734137     0.08100
C419        C  0.38371897  0.16655938  0.34338375    -0.01700
C420        C  0.35545534  0.17612078  0.37059014    -0.01700
C421        C  0.33933823  0.20958120  0.37129409     0.08200
C422        C  0.35122152  0.23209100  0.34253816    -0.01900
Br423      Br  0.32715956  0.27608920  0.33584964    -0.00500
Br424      Br  0.40021084  0.25404806  0.28014373    -0.00600
Br425      Br  0.33961675  0.14160856  0.40539494    -0.00500
Br426      Br  0.40407644  0.12097011  0.34100140    -0.00500
C427        C  0.34599172  0.16551017  0.08638285    -0.01600
C428        C  0.34416474  0.20036348  0.07836680     0.08100
C429        C  0.37026566  0.22280830  0.09736966    -0.01700
C430        C  0.39656570  0.21070085  0.12477098    -0.01700
C431        C  0.39912654  0.17593916  0.13181816     0.08200
C432        C  0.37416448  0.15334139  0.11239769    -0.01900
Br433      Br  0.37884567  0.10575913  0.12172646    -0.00500
Br434      Br  0.30878789  0.13426929  0.06350019    -0.00600
Br435      Br  0.42973840  0.24179508  0.15271294    -0.00500
Br436      Br  0.37289859  0.26997882  0.08445791    -0.00500
C437        C  0.13538783  0.33212142  0.38165378    -0.01600
C438        C  0.13974061  0.29703826  0.38537769     0.08100
C439        C  0.11604617  0.27526235  0.36332038    -0.01700
C440        C  0.08999782  0.28862164  0.33617023    -0.01700
C441        C  0.08724861  0.32375568  0.33129967     0.08200
C442        C  0.10935659  0.34543630  0.35466278    -0.01900
Br443      Br  0.10587499  0.39355315  0.34839139    -0.00500
Br444      Br  0.16458958  0.36207353  0.41420685    -0.00600
Br445      Br  0.05877992  0.25892981  0.30495003    -0.00500
Br446      Br  0.12071862  0.22717287  0.36892661    -0.00500
C447        C  0.14551009  0.33182031  0.08835740    -0.01600
C448        C  0.14869145  0.29690363  0.08204999     0.08100
C449        C  0.12545355  0.27430652  0.10321010    -0.01700
C450        C  0.09909462  0.28658138  0.13047542    -0.01700
C451        C  0.09693691  0.32139914  0.13763846     0.08200
C452        C  0.12004079  0.34403437  0.11644583    -0.01900
Br453      Br  0.11592460  0.39172714  0.12544812    -0.00500
Br454      Br  0.17432972  0.36295314  0.05718693    -0.00600
Br455      Br  0.06528607  0.25576296  0.15777039    -0.00500
Br456      Br  0.13094915  0.22640790  0.09598017    -0.00500
C457        C  0.86017170  0.13197153  0.44726108    -0.01600
C458        C  0.84596186  0.14564253  0.48062532     0.08100
C459        C  0.85879590  0.13209709  0.51447294    -0.01700
C460        C  0.88579361  0.10476610  0.51499852    -0.01700
C461        C  0.90006276  0.09106884  0.48160582     0.08200
C462        C  0.88739766  0.10479446  0.44775021    -0.01900
Br463      Br  0.90837692  0.08681102  0.40221780    -0.00500
Br464      Br  0.84284910  0.15091887  0.40100054    -0.00600
Br465      Br  0.90434437  0.08671171  0.56133556    -0.00500
Br466      Br  0.82538956  0.14453304  0.05943717    -0.00500
C467        C  0.12772830  0.09737559  0.01927769    -0.01600
C468        C  0.11103179  0.08364892  0.48359226     0.08100
C469        C  0.12548902  0.09574224  0.44957904    -0.01700
C470        C  0.15336719  0.12249757  0.44879025    -0.01700
C471        C  0.16702839  0.13689292  0.48199761     0.08200
C472        C  0.15602938  0.12374926  0.01667684    -0.01900
Br473      Br  0.18150216  0.14145498  0.06048686    -0.00500
Br474      Br  0.11375024  0.07900785  0.06672534    -0.00600
Br475      Br  0.17136577  0.14068758  0.40235127    -0.00500
Br476      Br  0.10576739  0.07645638  0.40417910    -0.00500
C477        C  0.11401062  0.89401770  0.52407339    -0.01600
C478        C  0.10042202  0.90831690  0.49083108     0.08100
C479        C  0.11222172  0.89440395  0.45681433    -0.01700
C480        C  0.13809373  0.86641597  0.45604382    -0.01700
C481        C  0.15135259  0.85186223  0.48925065     0.08200
C482        C  0.13908730  0.86548251  0.52326883    -0.01900
Br483      Br  0.16802010  0.85125430  0.06840413    -0.00500
Br484      Br  0.11065389  0.92071123  0.07052953    -0.00600
Br485      Br  0.15515977  0.84781460  0.40955633    -0.00500
Br486      Br  0.09185869  0.91324763  0.41143827    -0.00500
C487        C  0.87743880  0.90053905  0.51823405    -0.01600
C488        C  0.89032824  0.91480641  0.48469893     0.08100
C489        C  0.87649068  0.90118282  0.45102712    -0.01700
C490        C  0.84975616  0.87348211  0.45099909    -0.01700
C491        C  0.83810421  0.85858143  0.48457318     0.08200
C492        C  0.84820231  0.87496264  0.01537681    -0.01900
Br493      Br  0.82573640  0.85867767  0.06105701    -0.00500
Br494      Br  0.88561566  0.92631239  0.06095451    -0.00600
Br495      Br  0.82969556  0.85542633  0.40510844    -0.00500
Br496      Br  0.89629153  0.91917537  0.40512747    -0.00500
C497        C  0.59412095  0.38168899  0.46799283    -0.01600
C498        C  0.59576287  0.40508972  0.49712420     0.08100
C499        C  0.62466368  0.40016592  0.02595750    -0.01700
C500        C  0.65273079  0.37357853  0.02402284    -0.01700
C501        C  0.65245087  0.35206992  0.49385515     0.08200
C502        C  0.62197227  0.35499438  0.46658265    -0.01900
Br503      Br  0.61616529  0.32129147  0.42841880    -0.00500
Br504      Br  0.55384166  0.38647212  0.42966559    -0.00600
Br505      Br  0.69215549  0.36893034  0.06305563    -0.00500
Br506      Br  0.62430864  0.43006256  0.06796195    -0.00500
C507        C  0.33181236  0.38241438  0.01497449    -0.01600
C508        C  0.33404484  0.35894179  0.48636994     0.08100
C509        C  0.36438240  0.36342912  0.45924846    -0.01700
C510        C  0.39137741  0.39079114  0.46157031    -0.01700
C511        C  0.38941038  0.41327353  0.49153182     0.08200
C512        C  0.35968552  0.40922789  0.01780420    -0.01900
Br513      Br  0.35681599  0.44017738  0.05877802    -0.00500
Br514      Br  0.28991135  0.37829984  0.05184290    -0.00600
Br515      Br  0.43161509  0.39755101  0.42364832    -0.00500
Br516      Br  0.37212307  0.33064837  0.42050428    -0.00500
C517        C  0.39990795  0.61062304  0.45831665    -0.01600
C518        C  0.39961123  0.58884258  0.48879903     0.08100
C519        C  0.37001242  0.59194404  0.01609597    -0.01700
C520        C  0.34016149  0.61702861  0.01267295    -0.01700
C521        C  0.34088674  0.64045723  0.48305783     0.08200
C522        C  0.37004721  0.63563821  0.45483518    -0.01900
Br523      Br  0.36884265  0.66109833  0.40982816    -0.00500
Br524      Br  0.44137076  0.60597947  0.42095967    -0.00600
Br525      Br  0.29449252  0.61633585  0.04599928    -0.00500
Br526      Br  0.36965720  0.56215134  0.05810449    -0.00500
C527        C  0.63585847  0.62970207  0.45222874    -0.01600
C528        C  0.66371104  0.63603878  0.48137319     0.08100
C529        C  0.66636417  0.61313291  0.01145567    -0.01700
C530        C  0.63859048  0.58617842  0.01371566    -0.01700
C531        C  0.60893885  0.58085224  0.48503851     0.08200
C532        C  0.60959998  0.60170029  0.45374681    -0.01900
Br533      Br  0.57368442  0.59180567  0.41301384    -0.00500
Br534      Br  0.63060240  0.65989851  0.41083520    -0.00600
Br535      Br  0.63856899  0.55720942  0.05637880    -0.00500
Br536      Br  0.70923710  0.61579951  0.04770331    -0.00500
N537        N  0.50323265  0.54816857  0.99086743    -0.36400
N538        N  0.56103759  0.49501927  0.49422659    -0.56900
N539        N  0.49464059  0.44700862  0.49703210    -0.36400
N540        N  0.43682135  0.49982550  0.99443654    -0.56900
C541        C  0.53749402  0.56587244  0.99772632     0.27200
C542        C  0.47147437  0.56837671  0.99888146     0.27200
C543        C  0.52626473  0.42753364  0.50707197     0.27200
C544        C  0.46040241  0.43019420  0.50595061     0.27200
C545        C  0.58603043  0.52048232  0.48464611     0.35800
C546        C  0.58174077  0.46622498  0.48856286     0.35800
C547        C  0.41629328  0.52776903  0.98489049     0.35800
C548        C  0.41218388  0.47353408  0.98695268     0.35800
C549        C  0.52740264  0.59774999  0.01025401    -0.21700
C550        C  0.48568797  0.59929572  0.01109888    -0.21700
C551        C  0.51201736  0.39811597  0.52302089    -0.21700
C552        C  0.47031673  0.39978060  0.52223992    -0.21700
C553        C  0.62307322  0.50788006  0.47318371    -0.22700
C554        C  0.62034634  0.47338840  0.47563556    -0.22700
C555        C  0.37816450  0.51926196  0.97158773    -0.22700
C556        C  0.37558878  0.48475099  0.97286424    -0.22700
C557        C  0.57735061  0.55492527  0.98966504    -0.18100
C558        C  0.43034340  0.56079993  0.99132768    -0.18100
C559        C  0.42091448  0.43994407  0.49541457    -0.18100
C560        C  0.56712797  0.43388888  0.49778951    -0.18100
H561        H  0.54795528  0.61802804  0.01725604     0.14800
H562        H  0.46783722  0.62106176  0.01866146     0.14800
H563        H  0.52981481  0.37709621  0.53285706     0.14800
H564        H  0.44965139  0.38035786  0.53140013     0.14800
H565        H  0.64941613  0.52206102  0.46454714     0.13100
H566        H  0.64422626  0.45566347  0.46926284     0.13100
H567        H  0.35449394  0.53617455  0.96249212     0.13100
H568        H  0.34960812  0.46970994  0.96498091     0.13100
H569        H  0.50156247  0.52549164  0.97663967     0.26400
H570        H  0.49633285  0.46783083  0.47980078     0.26400
N571        N  0.00255400  0.05075968  0.98841036    -0.36400
N572        N  0.93786285  0.00064580  0.98694244    -0.56900
N573        N  0.99877265  0.94833329  0.98793720    -0.36400
N574        N  0.06334507  0.99833711  0.99302522    -0.56900
C575        C  0.97000559  0.07063379  0.99457799     0.27200
C576        C  0.03606380  0.06940977  0.99529837     0.27200
C577        C  0.96487018  0.92956016  0.99200563     0.27200
C578        C  0.03058844  0.92856482  0.99695407     0.27200
C579        C  0.91514327  0.02856868  0.98229474     0.35800
C580        C  0.91333823  0.97406913  0.98017646     0.35800
C581        C  0.08822280  0.02478009  0.98715177     0.35800
C582        C  0.08621833  0.97043814  0.98898804     0.35800
C583        C  0.98305145  0.10237382  0.00534265    -0.21700
C584        C  0.02470905  0.10163214  0.00564800    -0.21700
C585        C  0.97535830  0.89739527  0.00330729    -0.21700
C586        C  0.01676932  0.89680794  0.00653904    -0.21700
C587        C  0.87570598  0.01968596  0.97317969    -0.22700
C588        C  0.87458181  0.98511429  0.97180672    -0.22700
C589        C  0.12728891  0.01366957  0.98016614    -0.22700
C590        C  0.12602490  0.97916110  0.98139905    -0.22700
C591        C  0.92901091  0.06189330  0.98785274    -0.18100
C592        C  0.07658589  0.05883387  0.98999598    -0.18100
C593        C  0.07193944  0.93722139  0.99336154    -0.18100
C594        C  0.92482419  0.93999766  0.98407445    -0.18100
H595        H  0.96451055  0.12408030  0.01162389     0.14800
H596        H  0.04436970  0.12259492  0.01230887     0.14800
H597        H  0.95534038  0.87631919  0.00834446     0.14800
H598        H  0.03471714  0.87516823  0.01431613     0.14800
H599        H  0.85032719  0.03635472  0.96834418     0.13100
H600        H  0.84817406  0.96985154  0.96584452     0.13100
H601        H  0.15394439  0.02883420  0.97498166     0.13100
H602        H  0.15146628  0.96241492  0.97721539     0.13100
H603        H  0.00209277  0.02744120  0.97560807     0.26400
H604        H  0.00046839  0.97162742  0.97524340     0.26400
O605        O  0.16129169  0.26726698  0.52797246    -0.78300
C606        C  0.17003629  0.28544455  0.91065056     0.82800
O607        O  0.22756115  0.16734152  0.97740520    -0.79400
O608        O  0.29554742  0.25019693  0.89995906    -0.80900
O609        O  0.29915398  0.31311185  0.51409658    -0.80700
O610        O  0.21375047  0.29006398  0.55760704    -0.79300
Zn611      Zn  0.18497770  0.24550968  0.98094224     1.55700
O612        O  0.29220612  0.32034721  0.95236723    -0.80700
Cd613      Cd  0.26212888  0.27286020  0.52661970     1.59700
Cd614      Cd  0.27086523  0.20542265  0.97612661     1.59600
O615        O  0.29604098  0.24065781  0.55875572    -0.80700
O616        O  0.24357814  0.25037737  0.97924202    -1.91200
Cd617      Cd  0.25910007  0.27812682  0.93559093     1.59900
O618        O  0.31043763  0.19809867  0.52112366    -0.80600
O619        O  0.20746762  0.29284275  0.90673583    -0.79300
C620        C  0.18906040  0.16895012  0.98019190     0.83200
C621        C  0.17583815  0.28462463  0.55443335     0.82900
O622        O  0.15763720  0.26694997  0.93695069    -0.78200
C623        C  0.30682170  0.32955176  0.98342395     0.83700
O624        O  0.17008906  0.19675952  0.98179381    -0.78300
C625        C  0.31497666  0.21351400  0.55165533     0.83800
C626        C  0.31138995  0.22097635  0.90089716     0.84200
O627        O  0.30474048  0.20172779  0.92822743    -0.80800
O628        O  0.83425500  0.27339692  0.93443996    -0.78300
C629        C  0.82006953  0.29114655  0.55346062     0.82800
O630        O  0.78072672  0.16966176  0.97924143    -0.79400
O631        O  0.70852733  0.23609248  0.56095138    -0.80900
O632        O  0.69823220  0.31787510  0.95860619    -0.80700
O633        O  0.78051926  0.29620811  0.90671039    -0.79300
Zn634      Zn  0.81303839  0.25061810  0.97976959     1.55700
O635        O  0.69244155  0.30807341  0.51924688    -0.80700
Cd636      Cd  0.73316045  0.27830039  0.93912080     1.59700
Cd637      Cd  0.73305152  0.20355964  0.97757684     1.59600
O638        O  0.69585604  0.24907812  0.90613281    -0.80700
O639        O  0.75444672  0.25051155  0.98052879    -1.91200
Cd640      Cd  0.73551076  0.27159147  0.52854223     1.59900
O641        O  0.70159525  0.19720470  0.92868554    -0.80600
O642        O  0.78195691  0.29255059  0.55829212    -0.79300
C643        C  0.81896934  0.17427944  0.98017548     0.83200
C644        C  0.81858394  0.29077071  0.90870686     0.82900
O645        O  0.83573986  0.27629060  0.52580671    -0.78200
C646        C  0.68272101  0.32404405  0.99007083     0.83700
O647        O  0.83479047  0.20348649  0.98029596    -0.78300
C648        C  0.68788982  0.21770642  0.90472620     0.83800
C649        C  0.69096344  0.20842981  0.55353392     0.84200
O650        O  0.69529667  0.19389439  0.52239328    -0.80800
O651        O  0.83399044  0.72760991  0.52961055    -0.78300
C652        C  0.81475332  0.71537233  0.90890042     0.82800
O653        O  0.77618706  0.83122019  0.98721477    -0.79400
O654        O  0.68951942  0.75833595  0.91357868    -0.80900
O655        O  0.69753544  0.68095688  0.51301705    -0.80700
O656        O  0.78090430  0.70520586  0.55872150    -0.79300
Zn657      Zn  0.81051476  0.75047383  0.98365533     1.55700
O658        O  0.70000961  0.68185176  0.95284292    -0.80700
Cd659      Cd  0.73249531  0.72212155  0.52834249     1.59700
Cd660      Cd  0.72930838  0.79647726  0.98899433     1.59600
O661        O  0.69769561  0.75113432  0.56268010    -0.80700
O662        O  0.75148730  0.74941631  0.98527069    -1.91200
Cd663      Cd  0.72987390  0.72664718  0.94020619     1.59900
O664        O  0.69375330  0.80170309  0.53650057    -0.80600
O665        O  0.77644776  0.71479459  0.90445862    -0.79300
C666        C  0.81430128  0.82743643  0.98313245     0.83200
C667        C  0.81882535  0.71034924  0.55583352     0.82900
O668        O  0.83123846  0.72682861  0.93811606    -0.78200
C669        C  0.68877185  0.66838330  0.98301559     0.83700
O670        O  0.83074215  0.79849976  0.98100296    -0.78300
C671        C  0.68432964  0.78114076  0.56206171     0.83800
C672        C  0.67790944  0.78861526  0.91859933     0.84200
O673        O  0.69091857  0.80665571  0.94515027    -0.80800
O674        O  0.16601478  0.72415104  0.93841851    -0.78300
C675        C  0.18241387  0.70579013  0.55650760     0.82800
O676        O  0.21697487  0.82793192  0.98812172    -0.79400
O677        O  0.29976640  0.75583730  0.56069346    -0.80900
O678        O  0.30159069  0.68226676  0.95285055    -0.80700
O679        O  0.22076669  0.70826989  0.90673478    -0.79300
Zn680      Zn  0.18678123  0.74627980  0.98446725     1.55700
O681        O  0.30437726  0.68386776  0.51395333    -0.80700
Cd682      Cd  0.26744985  0.72434272  0.93954964     1.59700
Cd683      Cd  0.26512136  0.79499660  0.98468518     1.59600
O684        O  0.30220568  0.75751830  0.90876968    -0.80700
O685        O  0.24561554  0.74724889  0.98412727    -1.91200
Cd686      Cd  0.26676455  0.72328971  0.52860089     1.59900
O687        O  0.29883914  0.80650081  0.93846242    -0.80600
O688        O  0.22067062  0.70389550  0.56026156    -0.79300
C689        C  0.17886850  0.82284747  0.98835218     0.83200
C690        C  0.18256889  0.71053444  0.91047528     0.82900
O691        O  0.16582454  0.72096000  0.52957014    -0.78200
C692        C  0.31441669  0.67030869  0.98322784     0.83700
O693        O  0.16359475  0.79341520  0.98683344    -0.78300
C694        C  0.31143910  0.78860384  0.91173859     0.83800
C695        C  0.31271027  0.78578226  0.55664507     0.84200
O696        O  0.30252764  0.80389750  0.52930121    -0.80800
N697        N  0.99455328  0.34330703  0.81723873    -0.36400
N698        N  0.06039734  0.34714020  0.73267930    -0.56900
N699        N  0.99653639  0.34765651  0.67847501    -0.36400
N700        N  0.93135796  0.35443239  0.73280440    -0.56900
C701        C  0.02848464  0.35857621  0.80455645     0.27200
C702        C  0.96296520  0.36195767  0.80503292     0.27200
C703        C  0.02966622  0.34840329  0.65636138     0.27200
C704        C  0.96375405  0.35255387  0.65665260     0.27200
C705        C  0.08172226  0.33932684  0.76325362     0.35800
C706        C  0.08260288  0.33692973  0.70366855     0.35800
C707        C  0.90817698  0.34863471  0.76279419     0.35800
C708        C  0.90876180  0.34606547  0.70333587     0.35800
C709        C  0.01851233  0.38828067  0.78690131    -0.21700
C710        C  0.97712371  0.39054131  0.78741774    -0.21700
C711        C  0.01776109  0.35496609  0.62043401    -0.21700
C712        C  0.97627116  0.35769557  0.62064685    -0.21700
C713        C  0.11853060  0.32505968  0.75373004    -0.22700
C714        C  0.11925461  0.32379455  0.71576586    -0.22700
C715        C  0.86993345  0.33781517  0.75233512    -0.22700
C716        C  0.87027102  0.33623224  0.71445614    -0.22700
C717        C  0.06544779  0.34180130  0.79908952    -0.18100
C718        C  0.92398123  0.34873669  0.79892849    -0.18100
C719        C  0.92307088  0.34602442  0.66675677    -0.18100
C720        C  0.06937159  0.33848432  0.66666216    -0.18100
H721        H  0.03884159  0.40475962  0.77201321     0.14800
H722        H  0.95919463  0.40903586  0.77281585     0.14800
H723        H  0.03675254  0.35594082  0.59618132     0.14800
H724        H  0.95722520  0.36097628  0.59660725     0.14800
H725        H  0.14169331  0.31558263  0.77212628     0.13100
H726        H  0.14332065  0.31332622  0.69908245     0.13100
H727        H  0.84513674  0.33045632  0.77008439     0.13100
H728        H  0.84551699  0.32771659  0.69718481     0.13100
H729        H  0.99276912  0.31869770  0.82718565     0.26400
H730        H  0.99560903  0.33871835  0.70537145     0.26400
N731        N  0.99952909  0.64845595  0.67496319    -0.36400
N732        N  0.06093240  0.65569617  0.73233834    -0.56900
N733        N  0.99914364  0.66481433  0.78765337    -0.36400
N734        N  0.93787833  0.65732517  0.73163618    -0.56900
C735        C  0.03258052  0.65600011  0.65449067     0.27200
C736        C  0.96668380  0.65598959  0.65414288     0.27200
C737        C  0.03226389  0.67588982  0.80597282     0.27200
C738        C  0.96643127  0.67774857  0.80504822     0.27200
C739        C  0.08529147  0.64996481  0.70321650     0.35800
C740        C  0.08510905  0.65617057  0.76234045     0.35800
C741        C  0.91391225  0.65014799  0.70255292     0.35800
C742        C  0.91360912  0.65798025  0.76152202     0.35800
C743        C  0.02054966  0.66645402  0.61970602    -0.21700
C744        C  0.97905593  0.66639543  0.61946795    -0.21700
C745        C  0.02043106  0.69554804  0.83570134    -0.21700
C746        C  0.97888852  0.69693060  0.83493489    -0.21700
C747        C  0.12507416  0.64608509  0.71479436    -0.22700
C748        C  0.12493315  0.64979345  0.75238828    -0.22700
C749        C  0.87428098  0.64543262  0.71406902    -0.22700
C750        C  0.87414910  0.65005989  0.75161333    -0.22700
C751        C  0.07340471  0.65485668  0.66636350    -0.18100
C752        C  0.92576786  0.65507170  0.66572547    -0.18100
C753        C  0.92554662  0.67107273  0.79599736    -0.18100
C754        C  0.07287655  0.66811640  0.79712206    -0.18100
H755        H  0.03963089  0.67425025  0.59703333     0.14800
H756        H  0.96019141  0.67411557  0.59657481     0.14800
H757        H  0.03965831  0.70780903  0.85583913     0.14800
H758        H  0.95999870  0.71032386  0.85439787     0.14800
H759        H  0.15165189  0.64285723  0.69769265     0.13100
H760        H  0.15143077  0.65005424  0.77001946     0.13100
H761        H  0.84793448  0.64102695  0.69690462     0.13100
H762        H  0.84766015  0.64990235  0.76917675     0.13100
H763        H  0.99935866  0.63794444  0.70117445     0.26400
H764        H  0.99881543  0.64669930  0.76694235     0.26400
N765        N  0.49636392  0.82925052  0.68245455    -0.36400
N766        N  0.55643596  0.82774447  0.74061508    -0.56900
N767        N  0.49151377  0.83986500  0.79190889    -0.36400
N768        N  0.43058898  0.84369263  0.73372216    -0.56900
C769        C  0.53096499  0.82962173  0.66258989     0.27200
C770        C  0.46573601  0.83722788  0.65934423     0.27200
C771        C  0.52396717  0.84372466  0.81438028     0.27200
C772        C  0.45839164  0.85021516  0.81058066     0.27200
C773        C  0.57860638  0.81456702  0.71290161     0.35800
C774        C  0.57595889  0.82008073  0.77221565     0.35800
C775        C  0.40915417  0.83374290  0.70391679     0.35800
C776        C  0.40628198  0.83831326  0.76302169     0.35800
C777        C  0.52228060  0.83842875  0.62645842    -0.21700
C778        C  0.48098695  0.84309493  0.62438893    -0.21700
C779        C  0.51142565  0.85771789  0.84748112    -0.21700
C780        C  0.46991101  0.86149290  0.84519389    -0.21700
C781        C  0.61297513  0.79907712  0.72678482    -0.22700
C782        C  0.61123231  0.80245020  0.76446754    -0.22700
C783        C  0.37056650  0.82355657  0.71408798    -0.22700
C784        C  0.36878106  0.82636441  0.75165851    -0.22700
C785        C  0.56900992  0.81797783  0.67518669    -0.18100
C786        C  0.42427278  0.83321980  0.66766976    -0.18100
C787        C  0.41810087  0.84276811  0.80002402    -0.18100
C788        C  0.56292757  0.82995060  0.80776069    -0.18100
H789        H  0.54324617  0.83977717  0.60359549     0.14800
H790        H  0.46385104  0.84853961  0.59965339     0.14800
H791        H  0.52986927  0.86258346  0.87159867     0.14800
H792        H  0.45011282  0.86969594  0.86719445     0.14800
H793        H  0.63672477  0.78664689  0.71138422     0.13100
H794        H  0.63341811  0.79304474  0.78387338     0.13100
H795        H  0.34662212  0.81414288  0.69643463     0.13100
H796        H  0.34316671  0.81956013  0.76870208     0.13100
H797        H  0.49285874  0.81839929  0.70824181     0.26400
H798        H  0.49065353  0.82498542  0.76842875     0.26400
N799        N  0.50303237  0.15265246  0.66878604    -0.36400
N800        N  0.56451054  0.15903076  0.72625285    -0.56900
N801        N  0.50281670  0.17100722  0.78147869    -0.36400
N802        N  0.44144017  0.16548611  0.72517066    -0.56900
C803        C  0.53667032  0.15715902  0.64797547     0.27200
C804        C  0.47080317  0.16071336  0.64737833     0.27200
C805        C  0.53642980  0.18208949  0.79914737     0.27200
C806        C  0.47047514  0.18428643  0.79921948     0.27200
C807        C  0.58854056  0.15094562  0.69752839     0.35800
C808        C  0.58821440  0.15863055  0.75661058     0.35800
C809        C  0.41713304  0.16022816  0.69579349     0.35800
C810        C  0.41685829  0.16761323  0.75481620     0.35800
C811        C  0.52539733  0.16581905  0.61237716    -0.21700
C812        C  0.48394706  0.16807079  0.61201518    -0.21700
C813        C  0.52520196  0.20235306  0.82859576    -0.21700
C814        C  0.48359730  0.20343404  0.82885463    -0.21700
C815        C  0.62763491  0.14469787  0.70976407    -0.22700
C816        C  0.62724873  0.14887975  0.74735303    -0.22700
C817        C  0.37698047  0.15853882  0.70689111    -0.22700
C818        C  0.37683709  0.16290256  0.74437020    -0.22700
C819        C  0.57743896  0.15558821  0.66035905    -0.18100
C820        C  0.42986673  0.16290630  0.65886705    -0.18100
C821        C  0.42935676  0.17902028  0.78984111    -0.18100
C822        C  0.57689153  0.17295293  0.79073087    -0.20500
H823        H  0.54505042  0.17102757  0.58921991     0.14800
H824        H  0.46568435  0.17532456  0.58854239     0.14800
H825        H  0.54491181  0.21493467  0.84810853     0.14800
H826        H  0.46515217  0.21709331  0.84844060     0.14800
H827        H  0.65407817  0.13932101  0.69317148     0.13100
H828        H  0.65340074  0.14756450  0.76534154     0.13100
H829        H  0.35040748  0.15597348  0.68958543     0.13100
H830        H  0.35014649  0.16448077  0.76159680     0.13100
H831        H  0.50203748  0.14407364  0.69578516     0.26400
H832        H  0.50184201  0.15276081  0.76092476     0.26400
C833        C  0.33835867  0.83220072  0.59781777    -0.01600
C834        C  0.34183344  0.79906061  0.58390640     0.08100
C835        C  0.37348357  0.77802541  0.59644497    -0.01700
C836        C  0.39956546  0.78916037  0.62436215    -0.01700
C837        C  0.39668534  0.82235385  0.63764940     0.08200
C838        C  0.36641304  0.84401813  0.62409945    -0.01900
Br839      Br  0.36300278  0.88951946  0.64239781    -0.00500
Br840      Br  0.29408356  0.86093247  0.58291135    -0.00600
Br841      Br  0.43756485  0.75799180  0.64616965    -0.00500
Br842      Br  0.38326068  0.73444952  0.57424116    -0.00500
C843        C  0.37252120  0.78544624  0.87136943    -0.01600
C844        C  0.33864123  0.80384336  0.88379629     0.08100
C845        C  0.33111566  0.83618491  0.86886956    -0.01700
C846        C  0.35758514  0.84967367  0.84210619    -0.01700
C847        C  0.39031400  0.83033232  0.82910119     0.08200
C848        C  0.39627243  0.79756997  0.84245780    -0.01900
Br849      Br  0.43473602  0.76794086  0.81885298    -0.00500
Br850      Br  0.39011444  0.74547443  0.89635822    -0.00600
Br851      Br  0.34830183  0.89379727  0.82187505    -0.00500
Br852      Br  0.28409945  0.86169005  0.88364467    -0.00500
C853        C  0.14125292  0.71348279  0.61266851    -0.01600
C854        C  0.15646748  0.69179745  0.58539468     0.08100
C855        C  0.14631202  0.65738523  0.58562634    -0.01700
C856        C  0.12066856  0.64469004  0.61327874    -0.01700
C857        C  0.10468663  0.66661437  0.64005520     0.08200
C858        C  0.11499551  0.70104715  0.63971629    -0.01900
Br859      Br  0.09123426  0.73161620  0.67503974    -0.00500
Br860      Br  0.15608058  0.76043251  0.61257324    -0.00600
Br861      Br  0.10630815  0.59770420  0.61414876    -0.00500
Br862      Br  0.16602657  0.62822725  0.54716137    -0.00500
C863        C  0.11883453  0.71109554  0.82477450    -0.01600
C864        C  0.10454460  0.67770541  0.82409033     0.08100
C865        C  0.11805378  0.65432947  0.85050303    -0.01700
C866        C  0.14403765  0.66491569  0.87897666    -0.01700
C867        C  0.15672711  0.69867771  0.88047987     0.08200
C868        C  0.14490371  0.72155494  0.85303711    -0.01900
Br869      Br  0.16426648  0.76732685  0.85450594    -0.00500
Br870      Br  0.10172151  0.74265750  0.78752207    -0.00600
Br871      Br  0.16158817  0.63366534  0.91632652    -0.00500
Br872      Br  0.10085774  0.60805643  0.84746521    -0.00500
C873        C  0.60894244  0.78667910  0.89124270    -0.01600
C874        C  0.64703589  0.80248841  0.89341830     0.08100
C875        C  0.65572040  0.83013785  0.87044066    -0.01700
C876        C  0.62693164  0.84080023  0.84415471    -0.01700
C877        C  0.59024100  0.82289129  0.83970063     0.08200
C878        C  0.58118423  0.79608592  0.86379402    -0.01900
Br879      Br  0.53214408  0.77037226  0.85793253    -0.00500
Br880      Br  0.59443017  0.75253040  0.92668315    -0.00600
Br881      Br  0.63792506  0.87941022  0.81363704    -0.00500
Br882      Br  0.70788956  0.85195329  0.87335397    -0.00500
C883        C  0.65960394  0.82182512  0.61056050    -0.01600
C884        C  0.65522464  0.79121858  0.59107221     0.08100
C885        C  0.62254336  0.76947963  0.59954039    -0.01700
C886        C  0.59553238  0.77766944  0.62802981    -0.01700
C887        C  0.59972284  0.80829178  0.64717345     0.08200
C888        C  0.63155486  0.83045865  0.63826423    -0.01900
Br889      Br  0.63583210  0.87301860  0.66361897    -0.00500
Br890      Br  0.70442075  0.85160184  0.60038204    -0.00600
Br891      Br  0.55258501  0.74684358  0.64091442    -0.00500
Br892      Br  0.61241818  0.72949369  0.57039280    -0.00500
C893        C  0.84352018  0.72063460  0.84566831    -0.01600
C894        C  0.84095940  0.70281045  0.87910665     0.08100
C895        C  0.86446543  0.67365255  0.88446446    -0.01700
C896        C  0.89038049  0.66224959  0.85637785    -0.01700
C897        C  0.89401612  0.68066493  0.82337688     0.08200
C898        C  0.87065047  0.71000969  0.81814785    -0.01900
Br899      Br  0.87784644  0.73700545  0.77450225    -0.00500
Br900      Br  0.81156099  0.76077955  0.83849468    -0.00600
Br901      Br  0.92165573  0.62171503  0.86325497    -0.00500
Br902      Br  0.86115256  0.64935355  0.93034629    -0.00500
C903        C  0.86453907  0.71718083  0.61005568    -0.01600
C904        C  0.84564102  0.69593863  0.58414122     0.08100
C905        C  0.85069824  0.66077649  0.58651872    -0.01700
C906        C  0.87578167  0.64696991  0.61401604    -0.01700
C907        C  0.89495807  0.66828586  0.63964176     0.08200
C908        C  0.88868061  0.70335183  0.63806577    -0.01900
Br909      Br  0.91426598  0.73253264  0.67385276    -0.00500
Br910      Br  0.85702840  0.76521782  0.60750093    -0.00600
Br911      Br  0.88466508  0.59912666  0.61637153    -0.00500
Br912      Br  0.82448071  0.63172277  0.55117302    -0.00500
C913        C  0.63724253  0.21600438  0.60137059    -0.01600
C914        C  0.66333069  0.19416906  0.58166988     0.08100
C915        C  0.66252670  0.15927652  0.58925584    -0.01700
C916        C  0.63422603  0.14623943  0.61463391    -0.01700
C917        C  0.60920720  0.16824978  0.63476480     0.08200
C918        C  0.61193881  0.20322011  0.62900772    -0.01900
Br919      Br  0.57981976  0.23374649  0.65858432    -0.00500
Br920      Br  0.63278553  0.26323083  0.58890418    -0.00600
Br921      Br  0.62891611  0.09837590  0.62135761    -0.00500
Br922      Br  0.70147341  0.12947666  0.56675627    -0.00500
C923        C  0.63276095  0.17912007  0.88185472    -0.01600
C924        C  0.66152027  0.20474226  0.87462620     0.08100
C925        C  0.66417849  0.21830258  0.83863424    -0.01700
C926        C  0.63660210  0.20803859  0.81117518    -0.01700
C927        C  0.60891769  0.18172454  0.81825069     0.08200
C928        C  0.60844498  0.16636356  0.85320997    -0.01900
Br929      Br  0.57340148  0.12825129  0.86208756    -0.00500
Br930      Br  0.62260560  0.16378886  0.93154221    -0.00600
Br931      Br  0.63521574  0.23171200  0.76468979    -0.00500
Br932      Br  0.70610028  0.25028714  0.82590985    -0.00500
C933        C  0.84312536  0.34005405  0.59171378    -0.01600
C934        C  0.84681060  0.30586921  0.58164105     0.08100
C935        C  0.87498003  0.28507761  0.59986774    -0.01700
C936        C  0.89955261  0.29842049  0.62781432    -0.01700
C937        C  0.89603804  0.33256687  0.63769359     0.08200
C938        C  0.86778688  0.35339329  0.61981659    -0.01900
Br939      Br  0.86340493  0.40006001  0.63380566    -0.00500
Br940      Br  0.80557887  0.36893763  0.56615332    -0.00600
Br941      Br  0.93763228  0.26970426  0.65330303    -0.00500
Br942      Br  0.87850310  0.23776807  0.58818683    -0.00500
C943        C  0.85640567  0.33960214  0.88293144    -0.01600
C944        C  0.84584529  0.30536672  0.88088092     0.08100
C945        C  0.86323528  0.28471380  0.85362141    -0.01700
C946        C  0.89125487  0.29826894  0.82843939    -0.01700
C947        C  0.90059708  0.33296854  0.82940420     0.08200
C948        C  0.88331060  0.35350223  0.85699843    -0.01900
Br949      Br  0.89490760  0.40105228  0.85842419    -0.00500
Br950      Br  0.83401070  0.36729963  0.92159029    -0.00600
Br951      Br  0.91699623  0.26922957  0.79277969    -0.00500
Br952      Br  0.84702599  0.23822000  0.84977918    -0.00500
C953        C  0.38240361  0.22217237  0.81662870    -0.01600
C954        C  0.39762486  0.18922202  0.81685571     0.08100
C955        C  0.38247885  0.16574467  0.84210519    -0.01700
C956        C  0.35382683  0.17551165  0.86889381    -0.01700
C957        C  0.33912609  0.20938412  0.87020358     0.08200
C958        C  0.35265891  0.23216041  0.84230148    -0.01900
Br959      Br  0.33109690  0.27716957  0.83674357    -0.00500
Br960      Br  0.40326815  0.25374746  0.78079231    -0.00600
Br961      Br  0.33517479  0.14070189  0.90214378    -0.00500
Br962      Br  0.40121598  0.11971579  0.83916936    -0.00500
C963        C  0.34592929  0.16521922  0.58682907    -0.01600
C964        C  0.34383431  0.20015931  0.57938999     0.08100
C965        C  0.37000429  0.22250314  0.59841511    -0.01700
C966        C  0.39682935  0.21015469  0.62522631    -0.01700
C967        C  0.39961341  0.17531615  0.63171388     0.08200
C968        C  0.37450097  0.15284558  0.61230850    -0.01900
Br969      Br  0.37950670  0.10517332  0.62096148    -0.00500
Br970      Br  0.30854969  0.13413690  0.56389959    -0.00600
Br971      Br  0.43039524  0.24101000  0.65309816    -0.00500
Br972      Br  0.37191861  0.26988167  0.58633723    -0.00500
C973        C  0.13642883  0.33464667  0.88080822    -0.01600
C974        C  0.14013493  0.29948375  0.88437801     0.08100
C975        C  0.11584707  0.27812435  0.86235415    -0.01700
C976        C  0.08985473  0.29191008  0.83542724    -0.01700
C977        C  0.08756970  0.32708079  0.83085312     0.08200
C978        C  0.11026254  0.34839187  0.85415813    -0.01900
Br979      Br  0.10722552  0.39657353  0.84828442    -0.00500
Br980      Br  0.16672232  0.36411953  0.91304851    -0.00600
Br981      Br  0.05820194  0.26274241  0.80397171    -0.00500
Br982      Br  0.11963397  0.22997707  0.86763196    -0.00500
C983        C  0.14577247  0.33372738  0.58808587    -0.01600
C984        C  0.14801995  0.29864038  0.58242097     0.08100
C985        C  0.12379193  0.27691742  0.60378112    -0.01700
C986        C  0.09760258  0.29018721  0.63066423    -0.01700
C987        C  0.09659440  0.32512807  0.63736419     0.08200
C988        C  0.12055163  0.34691537  0.61588495    -0.01900
Br989      Br  0.11809488  0.39478375  0.62420756    -0.00500
Br990      Br  0.17547455  0.36380601  0.55636945    -0.00600
Br991      Br  0.06252835  0.26053921  0.65818952    -0.00500
Br992      Br  0.12775387  0.22881777  0.59747967    -0.00500
C993        C  0.86693239  0.13437737  0.95010555    -0.01600
C994        C  0.84596495  0.14494945  0.98182202     0.08100
C995        C  0.85199660  0.12828649  0.01557391    -0.01700
C996        C  0.87854263  0.10067305  0.01750149    -0.01700
C997        C  0.89914024  0.08979540  0.98565808     0.08200
C998        C  0.89341113  0.10674635  0.95198925    -0.01900
Br999      Br  0.92257253  0.09235473  0.90869940    -0.00500
Br1000     Br  0.85966358  0.15800645  0.90424598    -0.00600
Br1001     Br  0.88799840  0.07848551  0.06390061    -0.00500
Br1002     Br  0.83958803  0.15134564  0.56001394    -0.00500
C1003       C  0.12603854  0.09721211  0.51683630    -0.01600
C1004       C  0.10852048  0.08511637  0.98725393     0.08100
C1005       C  0.11858653  0.09856342  0.95253941    -0.01700
C1006       C  0.14678124  0.12500090  0.94999693    -0.01700
C1007       C  0.16499753  0.13792028  0.98211388     0.08200
C1008       C  0.15419989  0.12375065  0.51600100    -0.01900
Br1009     Br  0.17449623  0.14291583  0.56128939    -0.00500
Br1010     Br  0.10628005  0.08059313  0.56335306    -0.00600
Br1011     Br  0.15973767  0.14429498  0.90273889    -0.00500
Br1012     Br  0.09270359  0.08136711  0.90868466    -0.00500
C1013       C  0.12005313  0.89753873  0.02462696    -0.01600
C1014       C  0.10148590  0.90915035  0.99208013     0.08100
C1015       C  0.10810725  0.89232645  0.95848048    -0.01700
C1016       C  0.13348229  0.86402127  0.95734245    -0.01700
C1017       C  0.15170217  0.85211015  0.98988583     0.08200
C1018       C  0.14480529  0.86874679  0.02359176    -0.01900
Br1019     Br  0.15604120  0.84465233  0.56860580    -0.00500
Br1020     Br  0.09758482  0.91334656  0.57048013    -0.00600
Br1021     Br  0.14361686  0.84175751  0.91113234    -0.00500
Br1022     Br  0.08176502  0.90796245  0.91416223    -0.00500
C1023       C  0.87399883  0.90311659  0.01542893    -0.01600
C1024       C  0.89304711  0.91340543  0.98260725     0.08100
C1025       C  0.88572644  0.89568112  0.94955727    -0.01700
C1026       C  0.85895330  0.86802045  0.94931482    -0.01700
C1027       C  0.84047210  0.85748465  0.98235981     0.08200
C1028       C  0.85188854  0.87220426  0.51812704    -0.01900
Br1029     Br  0.83696274  0.85106102  0.56391537    -0.00500
Br1030     Br  0.89665660  0.91888331  0.56429611    -0.00600
Br1031     Br  0.84769010  0.84444665  0.90392788    -0.00500
Br1032     Br  0.91406258  0.90835333  0.90522738    -0.00500
C1033       C  0.59451678  0.38192233  0.96789982    -0.01600
C1034       C  0.59635477  0.40489416  0.99742549     0.08100
C1035       C  0.62440532  0.40113757  0.52554214    -0.01700
C1036       C  0.65284854  0.37482046  0.52392984    -0.01700
C1037       C  0.65223258  0.35128223  0.99350194     0.08200
C1038       C  0.62192475  0.35492707  0.96616607    -0.01900
Br1039     Br  0.61557766  0.32176687  0.92750437    -0.00500
Br1040     Br  0.55443562  0.38763246  0.92955277    -0.00600
Br1041     Br  0.69273199  0.37114853  0.56267951    -0.00500
Br1042     Br  0.62414218  0.43180663  0.56687560    -0.00500
C1043       C  0.33162286  0.38212032  0.51605282    -0.01600
C1044       C  0.33450291  0.35915105  0.98538563     0.08100
C1045       C  0.36526896  0.36344512  0.95862914    -0.01700
C1046       C  0.39243024  0.39068132  0.96121069    -0.01700
C1047       C  0.39023019  0.41321627  0.99111542     0.08200
C1048       C  0.35932102  0.40907404  0.51859680    -0.01900
Br1049     Br  0.35689985  0.43989584  0.55970610    -0.00500
Br1050     Br  0.29033328  0.37769886  0.55343625    -0.00600
Br1051     Br  0.43313037  0.39723908  0.92366024    -0.00500
Br1052     Br  0.37335873  0.33054634  0.92008139    -0.00500
C1053       C  0.40101799  0.61061231  0.95878836    -0.01600
C1054       C  0.40054935  0.58879386  0.98923327     0.08100
C1055       C  0.36910129  0.59192555  0.51570666    -0.01700
C1056       C  0.33934087  0.61709677  0.51246752    -0.01700
C1057       C  0.34189283  0.64047363  0.98333988     0.08200
C1058       C  0.37147147  0.63590689  0.95542569    -0.01900
Br1059     Br  0.37170400  0.66258350  0.91126181    -0.00500
Br1060     Br  0.44225427  0.60555904  0.92128949    -0.00600
Br1061     Br  0.29392335  0.61658201  0.54609375    -0.00500
Br1062     Br  0.36862484  0.56192016  0.55752816    -0.00500
C1063       C  0.63476640  0.63116782  0.95388484    -0.01600
C1064       C  0.66347324  0.63698451  0.98244010     0.08100
C1065       C  0.66554023  0.61277894  0.51103972    -0.01700
C1066       C  0.63725064  0.58622692  0.51348326    -0.01700
C1067       C  0.60970091  0.58107119  0.98566464     0.08200
C1068       C  0.60915683  0.60275564  0.95503370    -0.01900
Br1069     Br  0.57242622  0.59352600  0.91471334    -0.00500
Br1070     Br  0.62715901  0.66284934  0.91414370    -0.00600
Br1071     Br  0.63579138  0.55810098  0.55679752    -0.00500
Br1072     Br  0.70786326  0.61551385  0.54781627    -0.00500
loop_ 
_geom_bond_atom_site_label_1 
_geom_bond_atom_site_label_2 
_geom_bond_distance 
_geom_bond_site_symmetry_2 
_ccdc_geom_bond_type 
N1            C6   1.352       .  A
N1            C5   1.353       .  A
N1           H33   1.040       .  S
N2            C9   1.351       .  A
N2           C10   1.349       .  A
N3            C8   1.352   1_556  A
N3            C7   1.349   1_556  A
N3           H34   1.040       .  S
N4           C11   1.347       .  A
N4           C12   1.350       .  A
C5           C13   1.387       .  A
C5           C21   1.416       .  A
C6           C22   1.416       .  A
C6           C14   1.387       .  A
C7           C15   1.388       .  A
C7           C24   1.412   1_554  A
C8           C23   1.412   1_554  A
C8           C16   1.386       .  A
C9           C17   1.385       .  A
C9          C557   1.413       .  A
C10          C24   1.414       .  A
C10          C18   1.387       .  A
C11          C19   1.388       .  A
C11          C22   1.411       .  A
C12          C20   1.385       .  A
C12         C559   1.409       .  A
C13          C14   1.378       .  A
C13          H25   1.082       .  S
C14          H26   1.082       .  S
C15          C16   1.377       .  A
C15          H27   1.082       .  S
C16          H28   1.082       .  S
C17          C18   1.378       .  A
C17          H29   1.082       .  S
C18          H30   1.082       .  S
C19          C20   1.376       .  A
C19          H31   1.082       .  S
C20          H32   1.082       .  S
C21         C545   1.413       .  A
C21         C531   1.495       .  S
C22         C518   1.487       .  S
C23         C548   1.409       .  A
C23        C1047   1.491       .  S
C24        C1034   1.485       .  S
N35          C40   1.356       .  A
N35          C39   1.354   1_455  A
N35          H67   1.028       .  S
N36          C43   1.349       .  A
N36          C44   1.352   1_545  A
N37          C42   1.352   1_655  A
N37          C41   1.355       .  A
N37          H68   1.016       .  S
N38          C45   1.349   1_565  A
N38          C46   1.349       .  A
C39          C47   1.388       .  A
C39          C55   1.419       .  A
C40          C56   1.418       .  A
C40          C48   1.387       .  A
C41          C49   1.388       .  A
C41          C58   1.420       .  A
C42          C57   1.418       .  A
C42          C50   1.388       .  A
C43          C55   1.417       .  A
C43          C51   1.387       .  A
C44          C58   1.418       .  A
C44          C52   1.386       .  A
C45          C53   1.386       .  A
C45          C56   1.412       .  A
C46          C54   1.387       .  A
C46          C57   1.415       .  A
C47          C48   1.372   1_655  A
C47          H59   1.082       .  S
C48          H60   1.082       .  S
C49          C50   1.370   1_655  A
C49          H61   1.082       .  S
C50          H62   1.082       .  S
C51          C52   1.375   1_545  A
C51          H63   1.082       .  S
C52          H64   1.082       .  S
C53          C54   1.372   1_545  A
C53          H65   1.082       .  S
C54          H66   1.082       .  S
C55         C461   1.486       .  S
C56         C468   1.487       .  S
C57         C478   1.481       .  S
C58         C488   1.492       .  S
O69          C85   1.274       .  A
O69        Zn611   2.021   1_554  S
C70         C438   1.480       .  S
C70          O86   1.274       .  A
C70          O83   1.277       .  A
O71          C84   1.274       .  A
O71         Cd78   2.072       .  S
O72          C90   1.274       .  A
O72         Cd81   2.087       .  S
O73         C623   1.273   1_554  A
O73         Cd77   2.063       .  S
O74          C85   1.273       .  A
O74         Cd77   2.065       .  S
Zn75         O86   2.021       .  S
Zn75         O88   2.001       .  S
Zn75        O605   2.028       .  S
Zn75         O80   1.942       .  S
O76          C87   1.278       .  A
O76         Cd81   2.089       .  S
Cd77         O79   2.062       .  S
Cd77        O616   1.994   1_554  S
Cd78         O91   2.068       .  S
Cd78        O618   2.072       .  S
Cd78         O80   2.002       .  S
O79          C89   1.273       .  A
O80         Cd81   1.997       .  S
O80        Cd613   1.992       .  S
Cd81         O83   2.080       .  S
O82          C89   1.275       .  A
O82        Cd614   2.080   1_554  S
C84         C471   1.465       .  S
C84          O88   1.273       .  A
C85         C448   1.475       .  S
C87         C508   1.490       .  S
C87         O609   1.274       .  A
C89         C428   1.487       .  S
C90         C421   1.514       .  S
C90          O91   1.271       .  A
O92         C108   1.272       .  A
O92         Zn98   2.006       .  S
C93         C398   1.468       .  S
C93         O109   1.274       .  A
C93         O106   1.270       .  A
O94         C107   1.274       .  A
O94        Cd101   2.072       .  S
O95         C113   1.270       .  A
O95        Cd104   2.041       .  S
O96         C110   1.275       .  A
O96        Cd100   2.072       .  S
O97         C108   1.276       .  A
O97        Cd100   2.077       .  S
Zn98        O111   2.009       .  S
Zn98        O645   2.018       .  S
Zn98        O103   1.932       .  S
O99         C646   1.271   1_554  A
O99        Cd104   2.057       .  S
Cd100       O102   2.071       .  S
Cd100       O103   1.994       .  S
Cd101       O105   2.070       .  S
Cd101       O650   2.090       .  S
Cd101       O103   1.998       .  S
O102        C112   1.275       .  A
O103       Cd640   1.983       .  S
Cd104       O106   2.043       .  S
Cd104       O639   1.982   1_554  S
O105        C112   1.275       .  A
C107        C458   1.468       .  S
C107        O111   1.273       .  A
C108        C408   1.471       .  S
O109       Zn634   2.015   1_554  S
C110        C501   1.482       .  S
C110        O635   1.272       .  A
C112        C388   1.488       .  S
C113        C378   1.483       .  S
C113        O114   1.277       .  A
O114       Cd637   2.093   1_554  S
O115        C131   1.276       .  A
O115       Zn657   2.035   1_554  S
C116        C358   1.472       .  S
C116        O132   1.275       .  A
C116        O129   1.273       .  A
O117        C130   1.274       .  A
O117       Cd124   2.073       .  S
O118        C136   1.276       .  A
O118       Cd127   2.072       .  S
O119        C669   1.274   1_554  A
O119       Cd123   2.076       .  S
O120        C131   1.272       .  A
O120       Cd123   2.055       .  S
Zn121       O132   2.027       .  S
Zn121       O134   2.032       .  S
Zn121       O651   2.038       .  S
Zn121       O126   1.949       .  S
O122        C133   1.275       .  A
O122       Cd127   2.089       .  S
Cd123       O125   2.052       .  S
Cd123       O662   1.993   1_554  S
Cd124       O137   2.070       .  S
Cd124       O664   2.085       .  S
Cd124       O126   2.014       .  S
O125        C135   1.273       .  A
O126       Cd127   2.000       .  S
O126       Cd659   1.993       .  S
Cd127       O129   2.065       .  S
O128        C135   1.277       .  A
O128       Cd660   2.091   1_554  S
C130        C491   1.474       .  S
C130        O134   1.276       .  A
C131        C368   1.471       .  S
C133        C528   1.502       .  S
C133        O655   1.274       .  A
C135        C348   1.483       .  S
C136        C338   1.475       .  S
C136        O137   1.274       .  A
O138        C154   1.273       .  A
O138       Zn144   2.007       .  S
C139        C318   1.465       .  S
C139        O155   1.273       .  A
C139        O152   1.271       .  A
O140        C153   1.273       .  A
O140       Cd147   2.061       .  S
O141        C159   1.273       .  A
O141       Cd150   2.052       .  S
O142        C156   1.273       .  A
O142       Cd146   2.071       .  S
O143        C154   1.270       .  A
O143       Cd146   2.041       .  S
Zn144       O157   2.019       .  S
Zn144       O691   2.012       .  S
Zn144       O149   1.939       .  S
O145        C692   1.274   1_554  A
O145       Cd150   2.069       .  S
Cd146       O148   2.073       .  S
Cd146       O149   1.989       .  S
Cd147       O151   2.064       .  S
Cd147       O696   2.057       .  S
Cd147       O149   2.003       .  S
O148        C158   1.276       .  A
O149       Cd686   1.989       .  S
Cd150       O152   2.057       .  S
Cd150       O685   1.990   1_554  S
O151        C158   1.272       .  A
C153        C481   1.466       .  S
C153        O157   1.274       .  A
C154        C331   1.458       .  S
O155       Zn680   2.016   1_554  S
C156        C521   1.493       .  S
C156        O681   1.274       .  A
C158        C308   1.485       .  S
C159        C298   1.475       .  S
C159        O160   1.272       .  A
O160       Cd683   2.057   1_554  S
N161        C166   1.354       .  A
N161        C165   1.353   1_655  A
N161        H193   1.045       .  S
N162        C169   1.349       .  A
N162        C170   1.345       .  A
N163        C168   1.353       .  A
N163        C167   1.357   1_655  A
N163        H194   1.040       .  S
N164        C171   1.350       .  A
N164        C172   1.344       .  A
C165        C173   1.385       .  A
C165        C181   1.404       .  A
C166        C182   1.404       .  A
C166        C174   1.385       .  A
C167        C175   1.387       .  A
C167        C184   1.418       .  A
C168        C183   1.414       .  A
C168        C176   1.386       .  A
C169        C181   1.410       .  A
C169        C177   1.384       .  A
C170        C184   1.412       .  A
C170        C178   1.388       .  A
C171        C179   1.385       .  A
C171        C182   1.410       .  A
C172        C180   1.388       .  A
C172        C183   1.409       .  A
C173        C174   1.368   1_455  A
C173        H185   1.083       .  S
C174        H186   1.083       .  S
C175        C176   1.372   1_455  A
C175        H187   1.082       .  S
C176        H188   1.083       .  S
C177        C178   1.379       .  A
C177        H189   1.082       .  S
C178        H190   1.082       .  S
C179        C180   1.377       .  A
C179        H191   1.082       .  S
C180        H192   1.082       .  S
C181        C441   1.485       .  S
C182        C411   1.485       .  S
C183        C401   1.479       .  S
C184        C451   1.488       .  S
N195        C200   1.354   1_455  A
N195        C199   1.354       .  A
N195        H227   1.039       .  S
N196        C203   1.349       .  A
N196        C204   1.349       .  A
N197        C202   1.353       .  A
N197        C201   1.351   1_655  A
N197        H228   1.040       .  S
N198        C205   1.348       .  A
N198        C206   1.350       .  A
C199        C207   1.388       .  A
C199        C215   1.414       .  A
C200        C216   1.415       .  A
C200        C208   1.387       .  A
C201        C209   1.389       .  A
C201        C218   1.414       .  A
C202        C217   1.413       .  A
C202        C210   1.386       .  A
C203        C215   1.408       .  A
C203        C211   1.386       .  A
C204        C218   1.409       .  A
C204        C212   1.386       .  A
C205        C213   1.386       .  A
C205        C216   1.408       .  A
C206        C214   1.385       .  A
C206        C217   1.410       .  A
C207        C208   1.368   1_455  A
C207        H219   1.082       .  S
C208        H220   1.082       .  S
C209        C210   1.370   1_455  A
C209        H221   1.082       .  S
C210        H222   1.082       .  S
C211        C212   1.372       .  A
C211        H223   1.082       .  S
C212        H224   1.082       .  S
C213        C214   1.374       .  A
C213        H225   1.082       .  S
C214        H226   1.082       .  S
C215        C321   1.484       .  S
C216        C371   1.485       .  S
C217        C361   1.489       .  S
C218        C328   1.480       .  S
N229        C234   1.351       .  A
N229        C233   1.352       .  A
N229        H261   1.037       .  S
N230        C237   1.350       .  A
N230        C238   1.350       .  A
N231        C236   1.351       .  A
N231        C235   1.353       .  A
N231        H262   1.036       .  S
N232        C239   1.350       .  A
N232        C240   1.350       .  A
C233        C241   1.387       .  A
C233        C249   1.414       .  A
C234        C250   1.411       .  A
C234        C242   1.386       .  A
C235        C243   1.387       .  A
C235        C252   1.418       .  A
C236        C251   1.413       .  A
C236        C244   1.386       .  A
C237        C249   1.412       .  A
C237        C245   1.385       .  A
C238        C252   1.416       .  A
C238        C246   1.388       .  A
C239        C247   1.386       .  A
C239        C250   1.409       .  A
C240        C248   1.386       .  A
C240        C251   1.410       .  A
C241        C242   1.377       .  A
C241        H253   1.082       .  S
C242        H254   1.082       .  S
C243        C244   1.379       .  A
C243        H255   1.082       .  S
C244        H256   1.082       .  S
C245        C246   1.375       .  A
C245        H257   1.082       .  S
C246        H258   1.082       .  S
C247        C248   1.369       .  A
C247        H259   1.082       .  S
C248        H260   1.082       .  S
C249        C351   1.489       .  S
C250        C301   1.483       .  S
C251        C311   1.484       .  S
C252        C341   1.493       .  S
N263        C268   1.355       .  A
N263        C267   1.355       .  A
N263        H295   1.039       .  S
N264        C271   1.349       .  A
N264        C272   1.351       .  A
N265        C270   1.353       .  A
N265        C269   1.353       .  A
N265        H296   1.040       .  S
N266        C273   1.349       .  A
N266        C274   1.351       .  A
C267        C275   1.388       .  A
C267        C283   1.419       .  A
C268        C284   1.417       .  A
C268        C276   1.387       .  A
C269        C277   1.388       .  A
C269        C286   1.417       .  A
C270        C285   1.413       .  A
C270        C278   1.386       .  A
C271        C283   1.410       .  A
C271        C279   1.386       .  A
C272        C286   1.414       .  A
C272        C280   1.386       .  A
C273        C281   1.386       .  A
C273        C284   1.410       .  A
C274        C282   1.385       .  A
C274        C285   1.410       .  A
C275        C276   1.370       .  A
C275        H287   1.082       .  S
C276        H288   1.082       .  S
C277        C278   1.373       .  A
C277        H289   1.082       .  S
C278        H290   1.082       .  S
C279        C280   1.375       .  A
C279        H291   1.082       .  S
C280        H292   1.082       .  S
C281        C282   1.372       .  A
C281        H293   1.082       .  S
C282        H294   1.082       .  S
C283        C381   1.489       .  S
C284        C431   1.489       .  S
C285        C418   1.490       .  S
C286        C391   1.495       .  S
C297        C298   1.415       .  A
C297        C302   1.408       .  A
C297       Br304   1.932       .  S
C298        C299   1.413       .  A
C299        C300   1.400       .  A
C299       Br306   1.937       .  S
C300        C301   1.408       .  A
C300       Br305   1.933       .  S
C301        C302   1.408       .  A
C302       Br303   1.929       .  S
C307        C308   1.411       .  A
C307        C312   1.397       .  A
C307       Br314   1.921       .  S
C308        C309   1.418       .  A
C309        C310   1.413       .  A
C309       Br316   1.930       .  S
C310        C311   1.407       .  A
C310       Br315   1.927       .  S
C311        C312   1.404       .  A
C312       Br313   1.933       .  S
C317        C318   1.406       .  A
C317        C322   1.401       .  A
C317       Br324   1.931       .  S
C318        C319   1.409       .  A
C319        C320   1.408       .  A
C319       Br326   1.927       .  S
C320        C321   1.408       .  A
C320       Br325   1.927       .  S
C321        C322   1.410       .  A
C322       Br323   1.932       .  S
C327        C328   1.409       .  A
C327        C332   1.399       .  A
C327       Br334   1.931       .  S
C328        C329   1.408       .  A
C329        C330   1.405       .  A
C329       Br336   1.927       .  S
C330        C331   1.406       .  A
C330       Br335   1.929       .  S
C331        C332   1.405       .  A
C332       Br333   1.929       .  S
C337        C338   1.407       .  A
C337        C342   1.404       .  A
C337       Br344   1.932       .  S
C338        C339   1.410       .  A
C339        C340   1.410       .  A
C339       Br346   1.929       .  S
C340        C341   1.412       .  A
C340       Br345   1.929       .  S
C341        C342   1.411       .  A
C342       Br343   1.925       .  S
C347        C348   1.414       .  A
C347        C352   1.411       .  A
C347       Br354   1.929       .  S
C348        C349   1.416       .  A
C349        C350   1.405       .  A
C349       Br356   1.937       .  S
C350        C351   1.407       .  A
C350       Br355   1.931       .  S
C351        C352   1.409       .  A
C352       Br353   1.930       .  S
C357        C358   1.409       .  A
C357        C362   1.407       .  A
C357       Br364   1.930       .  S
C358        C359   1.408       .  A
C359        C360   1.406       .  A
C359       Br366   1.929       .  S
C360        C361   1.409       .  A
C360       Br365   1.930       .  S
C361        C362   1.412       .  A
C362       Br363   1.930       .  S
C367        C368   1.408       .  A
C367        C372   1.404       .  A
C367       Br374   1.930       .  S
C368        C369   1.411       .  A
C369        C370   1.407       .  A
C369       Br376   1.928       .  S
C370        C371   1.406       .  A
C370       Br375   1.927       .  S
C371        C372   1.411       .  A
C372       Br373   1.933       .  S
C377        C378   1.417       .  A
C377        C382   1.401       .  A
C377       Br384   1.938       .  S
C378        C379   1.415       .  A
C379        C380   1.411       .  A
C379       Br386   1.929       .  S
C380        C381   1.408       .  A
C380       Br385   1.927       .  S
C381        C382   1.409       .  A
C382       Br383   1.936       .  S
C387        C388   1.416       .  A
C387        C392   1.406       .  A
C387       Br394   1.934       .  S
C388        C389   1.417       .  A
C389        C390   1.409       .  A
C389       Br396   1.934       .  S
C390        C391   1.412       .  A
C390       Br395   1.934       .  S
C391        C392   1.410       .  A
C392       Br393   1.933       .  S
C397        C398   1.412       .  A
C397        C402   1.406       .  A
C397       Br404   1.928       .  S
C398        C399   1.409       .  A
C399        C400   1.401       .  A
C399       Br406   1.933       .  S
C400        C401   1.409       .  A
C400       Br405   1.933       .  S
C401        C402   1.406       .  A
C402       Br403   1.928       .  S
C407        C408   1.406       .  A
C407        C412   1.407       .  A
C407       Br414   1.931       .  S
C408        C409   1.408       .  A
C409        C410   1.407       .  A
C409       Br416   1.929       .  S
C410        C411   1.412       .  A
C410       Br415   1.931       .  S
C411        C412   1.412       .  A
C412       Br413   1.929       .  S
C417        C418   1.403       .  A
C417        C422   1.410       .  A
C417       Br424   1.936       .  S
C418        C419   1.401       .  A
C419        C420   1.411       .  A
C419       Br426   1.935       .  S
C420        C421   1.433       .  A
C420       Br425   1.938       .  S
C421        C422   1.431       .  A
C422       Br423   1.937       .  S
C427        C428   1.418       .  A
C427        C432   1.410       .  A
C427       Br434   1.931       .  S
C428        C429   1.417       .  A
C429        C430   1.405       .  A
C429       Br436   1.936       .  S
C430        C431   1.408       .  A
C430       Br435   1.935       .  S
C431        C432   1.406       .  A
C432       Br433   1.928       .  S
C437        C438   1.409       .  A
C437        C442   1.406       .  A
C437       Br444   1.932       .  S
C438        C439   1.413       .  A
C439        C440   1.411       .  A
C439       Br446   1.929       .  S
C440        C441   1.411       .  A
C440       Br445   1.931       .  S
C441        C442   1.410       .  A
C442       Br443   1.930       .  S
C447        C448   1.411       .  A
C447        C452   1.408       .  A
C447       Br454   1.929       .  S
C448        C449   1.410       .  A
C449        C450   1.405       .  A
C449       Br456   1.931       .  S
C450        C451   1.410       .  A
C450       Br455   1.931       .  S
C451        C452   1.409       .  A
C452       Br453   1.928       .  S
C457        C458   1.408       .  A
C457        C462   1.406       .  A
C457       Br464   1.928       .  S
C458        C459   1.407       .  A
C459        C460   1.406       .  A
C459      Br1002   1.929       .  S
C460        C461   1.410       .  A
C460       Br465   1.929       .  S
C461        C462   1.408       .  A
C462       Br463   1.929       .  S
Br466       C995   1.930       .  S
C467        C472   1.406       .  A
C467       C1004   1.409   1_554  A
C467       Br474   1.928       .  S
C468        C469   1.409       .  A
C468       C1003   1.410       .  A
C469        C470   1.406       .  A
C469       Br476   1.928       .  S
C470        C471   1.407       .  A
C470       Br475   1.929       .  S
C471       C1008   1.407       .  A
C472       C1007   1.408   1_554  A
C472       Br473   1.929       .  S
C477        C478   1.407       .  A
C477        C482   1.405       .  A
C477      Br1020   1.929       .  S
C478        C479   1.408       .  A
C479        C480   1.403       .  A
C479       Br486   1.930       .  S
C480        C481   1.407       .  A
C480       Br485   1.926       .  S
C481        C482   1.408       .  A
C482      Br1019   1.926       .  S
Br483      C1018   1.928       .  S
Br484      C1013   1.928       .  S
C487        C488   1.410       .  A
C487       C1028   1.406       .  A
C487      Br1030   1.929       .  S
C488        C489   1.411       .  A
C489        C490   1.410       .  A
C489       Br496   1.929       .  S
C490        C491   1.410       .  A
C490       Br495   1.929       .  S
C491       C1028   1.407       .  A
C492       C1023   1.405       .  A
C492       C1027   1.407   1_554  A
C492       Br493   1.930       .  S
Br494      C1023   1.929       .  S
C497        C498   1.408       .  A
C497        C502   1.405       .  A
C497       Br504   1.932       .  S
C498       C1035   1.407       .  A
C498        C560   1.485       .  S
C499        C500   1.407       .  A
C499       C1034   1.406   1_554  A
C499       Br506   1.932       .  S
C500       C1037   1.418   1_554  A
C500       Br505   1.931       .  S
C501        C502   1.415       .  A
C501       C1036   1.417       .  A
C502       Br503   1.935       .  S
C507        C512   1.410       .  A
C507       C1044   1.419   1_554  A
C507       Br514   1.932       .  S
C508        C509   1.416       .  A
C508       C1043   1.419       .  A
C509        C510   1.407       .  A
C509       Br516   1.933       .  S
C510        C511   1.408       .  A
C510       Br515   1.932       .  S
C511       C1048   1.407       .  A
C511        C559   1.490       .  S
C512       C1047   1.408   1_554  A
C512       Br513   1.931       .  S
C517        C518   1.406       .  A
C517        C522   1.406       .  A
C517       Br524   1.936       .  S
C518       C1055   1.409       .  A
C519        C520   1.408       .  A
C519       C1054   1.408   1_554  A
C519       Br526   1.932       .  S
C520       C1057   1.417   1_554  A
C520       Br525   1.933       .  S
C521        C522   1.419       .  A
C521       C1056   1.417       .  A
C522       Br523   1.924       .  S
C527        C528   1.422       .  A
C527        C532   1.411       .  A
C527       Br534   1.932       .  S
C528       C1065   1.422       .  A
C529        C530   1.412       .  A
C529       C1064   1.421   1_554  A
C529       Br536   1.933       .  S
C530       C1067   1.408   1_554  A
C530       Br535   1.931       .  S
C531        C532   1.407       .  A
C531       C1066   1.407       .  A
C532       Br533   1.933       .  S
N537        C542   1.352       .  A
N537        C541   1.353       .  A
N537        H569   1.040       .  S
N538        C545   1.351       .  A
N538        C546   1.349       .  A
N539        C544   1.352       .  A
N539        C543   1.350       .  A
N539        H570   1.040       .  S
N540        C547   1.347       .  A
N540        C548   1.350       .  A
C541        C549   1.387   1_556  A
C541        C557   1.416       .  A
C542        C558   1.416       .  A
C542        C550   1.387   1_556  A
C543        C551   1.388       .  A
C543        C560   1.412       .  A
C544        C559   1.412       .  A
C544        C552   1.386       .  A
C545        C553   1.385       .  A
C546        C560   1.413       .  A
C546        C554   1.387       .  A
C547        C555   1.388       .  A
C547        C558   1.411       .  A
C548        C556   1.385       .  A
C549        C550   1.378       .  A
C549        H561   1.082       .  S
C550        H562   1.082       .  S
C551        C552   1.377       .  A
C551        H563   1.082       .  S
C552        H564   1.082       .  S
C553        C554   1.377       .  A
C553        H565   1.082       .  S
C554        H566   1.082       .  S
C555        C556   1.375       .  A
C555        H567   1.082       .  S
C556        H568   1.082       .  S
C557       C1067   1.496       .  S
C558       C1054   1.487       .  S
N571        C576   1.353       .  A
N571        C575   1.352   1_455  A
N571        H603   1.036       .  S
N572        C579   1.351       .  A
N572        C580   1.352   1_545  A
N573        C578   1.352   1_655  A
N573        C577   1.352       .  A
N573        H604   1.036   1_655  S
N574        C581   1.350   1_565  A
N574        C582   1.350       .  A
C575        C583   1.388   1_556  A
C575        C591   1.416       .  A
C576        C592   1.415       .  A
C576        C584   1.386   1_556  A
C577        C585   1.387   1_556  A
C577        C594   1.414       .  A
C578        C593   1.412       .  A
C578        C586   1.387   1_556  A
C579        C591   1.415       .  A
C579        C587   1.387       .  A
C580        C594   1.414       .  A
C580        C588   1.385       .  A
C581        C589   1.386       .  A
C581        C592   1.411       .  A
C582        C590   1.386       .  A
C582        C593   1.411       .  A
C583        C584   1.374   1_655  A
C583        H595   1.082       .  S
C584        H596   1.082       .  S
C585        C586   1.371   1_655  A
C585        H597   1.082       .  S
C586        H598   1.082       .  S
C587        C588   1.376   1_545  A
C587        H599   1.082       .  S
C588        H600   1.082       .  S
C589        C590   1.373   1_545  A
C589        H601   1.082       .  S
C590        H602   1.082       .  S
C591        C997   1.486       .  S
C592       C1004   1.486       .  S
C593       C1014   1.483       .  S
C594       C1024   1.489       .  S
O605        C621   1.275       .  A
C606        C974   1.481       .  S
C606        O622   1.274       .  A
C606        O619   1.277       .  A
O607        C620   1.276       .  A
O607       Cd614   2.081       .  S
O608        C626   1.275       .  A
O608       Cd617   2.087       .  S
O609       Cd613   2.064       .  S
O610        C621   1.274       .  A
O610       Cd613   2.070       .  S
Zn611       O622   2.023       .  S
Zn611       O624   1.999       .  S
Zn611       O616   1.943       .  S
O612        C623   1.278       .  A
O612       Cd617   2.091       .  S
Cd613       O615   2.063       .  S
Cd614       O627   2.073       .  S
Cd614       O616   2.005       .  S
O615        C625   1.274       .  A
O616       Cd617   1.999       .  S
Cd617       O619   2.083       .  S
O618        C625   1.274       .  A
C620       C1007   1.468       .  S
C620        O624   1.272       .  A
C621        C984   1.479       .  S
C623       C1044   1.490       .  S
C625        C964   1.484       .  S
C626        C957   1.514       .  S
C626        O627   1.273       .  A
O628        C644   1.272       .  A
O628       Zn634   2.006       .  S
C629        C934   1.470       .  S
C629        O645   1.274       .  A
C629        O642   1.271       .  A
O630        C643   1.275       .  A
O630       Cd637   2.073       .  S
O631        C649   1.271       .  A
O631       Cd640   2.043       .  S
O632        C646   1.276       .  A
O632       Cd636   2.075       .  S
O633        C644   1.276       .  A
O633       Cd636   2.082       .  S
Zn634       O647   2.007       .  S
Zn634       O639   1.933       .  S
O635       Cd640   2.059       .  S
Cd636       O638   2.070       .  S
Cd636       O639   1.994       .  S
Cd637       O641   2.069       .  S
Cd637       O639   1.997       .  S
O638        C648   1.275       .  A
Cd640       O642   2.049       .  S
O641        C648   1.275       .  A
C643        C994   1.469       .  S
C643        O647   1.272       .  A
C644        C944   1.473       .  S
C646       C1037   1.484       .  S
C648        C924   1.487       .  S
C649        C914   1.483       .  S
C649        O650   1.277       .  A
O651        C667   1.277       .  A
C652        C894   1.472       .  S
C652        O668   1.274       .  A
C652        O665   1.274       .  A
O653        C666   1.275       .  A
O653       Cd660   2.073       .  S
O654        C672   1.276       .  A
O654       Cd663   2.073       .  S
O655       Cd659   2.076       .  S
O656        C667   1.272       .  A
O656       Cd659   2.053       .  S
Zn657       O668   2.021       .  S
Zn657       O670   2.024       .  S
Zn657       O662   1.948       .  S
O658        C669   1.275       .  A
O658       Cd663   2.086       .  S
Cd659       O661   2.050       .  S
Cd660       O673   2.073       .  S
Cd660       O662   2.014       .  S
O661        C671   1.272       .  A
O662       Cd663   1.998       .  S
Cd663       O665   2.067       .  S
O664        C671   1.276       .  A
C666       C1027   1.473       .  S
C666        O670   1.275       .  A
C667        C904   1.472       .  S
C669       C1064   1.501       .  S
C671        C884   1.481       .  S
C672        C874   1.475       .  S
C672        O673   1.274       .  A
O674        C690   1.273       .  A
O674       Zn680   2.007       .  S
C675        C854   1.465       .  S
C675        O691   1.273       .  A
C675        O688   1.271       .  A
O676        C689   1.273       .  A
O676       Cd683   2.063       .  S
O677        C695   1.273       .  A
O677       Cd686   2.050       .  S
O678        C692   1.273       .  A
O678       Cd682   2.074       .  S
O679        C690   1.271       .  A
O679       Cd682   2.046       .  S
Zn680       O693   2.026       .  S
Zn680       O685   1.941       .  S
O681       Cd686   2.069       .  S
Cd682       O684   2.075       .  S
Cd682       O685   1.992       .  S
Cd683       O687   2.066       .  S
Cd683       O685   2.004       .  S
O684        C694   1.277       .  A
Cd686       O688   2.057       .  S
O687        C694   1.273       .  A
C689       C1017   1.470       .  S
C689        O693   1.275       .  A
C690        C867   1.459       .  S
C692       C1057   1.493       .  S
C694        C844   1.485       .  S
C695        C834   1.475       .  S
C695        O696   1.272       .  A
N697        C702   1.354       .  A
N697        C701   1.354   1_655  A
N697        H729   1.045       .  S
N698        C705   1.350       .  A
N698        C706   1.346       .  A
N699        C704   1.354       .  A
N699        C703   1.357   1_655  A
N699        H730   1.040       .  S
N700        C707   1.351       .  A
N700        C708   1.344       .  A
C701        C709   1.384       .  A
C701        C717   1.404       .  A
C702        C718   1.406       .  A
C702        C710   1.386       .  A
C703        C711   1.387       .  A
C703        C720   1.418       .  A
C704        C719   1.415       .  A
C704        C712   1.387       .  A
C705        C717   1.411       .  A
C705        C713   1.385       .  A
C706        C720   1.413       .  A
C706        C714   1.388       .  A
C707        C715   1.385       .  A
C707        C718   1.411       .  A
C708        C716   1.389       .  A
C708        C719   1.410       .  A
C709        C710   1.368   1_455  A
C709        H721   1.083       .  S
C710        H722   1.083       .  S
C711        C712   1.373   1_455  A
C711        H723   1.082       .  S
C712        H724   1.083       .  S
C713        C714   1.379       .  A
C713        H725   1.082       .  S
C714        H726   1.082       .  S
C715        C716   1.376       .  A
C715        H727   1.082       .  S
C716        H728   1.082       .  S
C717        C977   1.485       .  S
C718        C947   1.488       .  S
C719        C937   1.479       .  S
C720        C987   1.490       .  S
N731        C736   1.354       .  A
N731        C735   1.354   1_655  A
N731        H763   1.040       .  S
N732        C739   1.348       .  A
N732        C740   1.349       .  A
N733        C738   1.352       .  A
N733        C737   1.351   1_655  A
N733        H764   1.040       .  S
N734        C741   1.348       .  A
N734        C742   1.349       .  A
C735        C743   1.387       .  A
C735        C751   1.414       .  A
C736        C752   1.414       .  A
C736        C744   1.387       .  A
C737        C745   1.388       .  A
C737        C754   1.412       .  A
C738        C753   1.412       .  A
C738        C746   1.387       .  A
C739        C751   1.407       .  A
C739        C747   1.386       .  A
C740        C754   1.408       .  A
C740        C748   1.386       .  A
C741        C749   1.386       .  A
C741        C752   1.407       .  A
C742        C750   1.385       .  A
C742        C753   1.410       .  A
C743        C744   1.368   1_455  A
C743        H755   1.082       .  S
C744        H756   1.082       .  S
C745        C746   1.371   1_455  A
C745        H757   1.082       .  S
C746        H758   1.082       .  S
C747        C748   1.372       .  A
C747        H759   1.082       .  S
C748        H760   1.082       .  S
C749        C750   1.375       .  A
C749        H761   1.082       .  S
C750        H762   1.082       .  S
C751        C857   1.483       .  S
C752        C907   1.485       .  S
C753        C897   1.489       .  S
C754        C864   1.480       .  S
N765        C770   1.350       .  A
N765        C769   1.351       .  A
N765        H797   1.038       .  S
N766        C773   1.350       .  A
N766        C774   1.350       .  A
N767        C772   1.351       .  A
N767        C771   1.353       .  A
N767        H798   1.037       .  S
N768        C775   1.350       .  A
N768        C776   1.350       .  A
C769        C777   1.388       .  A
C769        C785   1.413       .  A
C770        C786   1.410       .  A
C770        C778   1.386       .  A
C771        C779   1.387       .  A
C771        C788   1.418       .  A
C772        C787   1.413       .  A
C772        C780   1.386       .  A
C773        C785   1.411       .  A
C773        C781   1.385       .  A
C774        C788   1.416       .  A
C774        C782   1.388       .  A
C775        C783   1.386       .  A
C775        C786   1.408       .  A
C776        C784   1.386       .  A
C776        C787   1.409       .  A
C777        C778   1.377       .  A
C777        H789   1.082       .  S
C778        H790   1.082       .  S
C779        C780   1.380       .  A
C779        H791   1.082       .  S
C780        H792   1.082       .  S
C781        C782   1.375       .  A
C781        H793   1.082       .  S
C782        H794   1.082       .  S
C783        C784   1.370       .  A
C783        H795   1.082       .  S
C784        H796   1.082       .  S
C785        C887   1.487       .  S
C786        C837   1.482       .  S
C787        C847   1.484       .  S
C788        C877   1.494       .  S
N799        C804   1.355       .  A
N799        C803   1.355       .  A
N799        H831   1.039       .  S
N800        C807   1.349       .  A
N800        C808   1.350       .  A
N801        C806   1.354       .  A
N801        C805   1.353       .  A
N801        H832   1.040       .  S
N802        C809   1.349       .  A
N802        C810   1.351       .  A
C803        C811   1.388       .  A
C803        C819   1.419       .  A
C804        C820   1.416       .  A
C804        C812   1.387       .  A
C805        C813   1.388       .  A
C805        C822   1.417       .  A
C806        C821   1.413       .  A
C806        C814   1.385       .  A
C807        C819   1.410       .  A
C807        C815   1.386       .  A
C808        C822   1.413       .  A
C808        C816   1.387       .  A
C809        C817   1.386       .  A
C809        C820   1.409       .  A
C810        C818   1.385       .  A
C810        C821   1.410       .  A
C811        C812   1.370       .  A
C811        H823   1.082       .  S
C812        H824   1.082       .  S
C813        C814   1.373       .  A
C813        H825   1.082       .  S
C814        H826   1.082       .  S
C815        C816   1.374       .  A
C815        H827   1.082       .  S
C816        H828   1.082       .  S
C817        C818   1.371       .  A
C817        H829   1.082       .  S
C818        H830   1.082       .  S
C819        C917   1.489       .  S
C820        C967   1.487       .  S
C821        C954   1.491       .  S
C822        C927   1.493       .  S
C833        C834   1.415       .  A
C833        C838   1.408       .  A
C833       Br840   1.932       .  S
C834        C835   1.413       .  A
C835        C836   1.399       .  A
C835       Br842   1.937       .  S
C836        C837   1.408       .  A
C836       Br841   1.933       .  S
C837        C838   1.408       .  A
C838       Br839   1.929       .  S
C843        C844   1.410       .  A
C843        C848   1.397       .  A
C843       Br850   1.921       .  S
C844        C845   1.418       .  A
C845        C846   1.413       .  A
C845       Br852   1.930       .  S
C846        C847   1.408       .  A
C846       Br851   1.927       .  S
C847        C848   1.404       .  A
C848       Br849   1.932       .  S
C853        C854   1.405       .  A
C853        C858   1.401       .  A
C853       Br860   1.929       .  S
C854        C855   1.408       .  A
C855        C856   1.407       .  A
C855       Br862   1.927       .  S
C856        C857   1.408       .  A
C856       Br861   1.927       .  S
C857        C858   1.410       .  A
C858       Br859   1.933       .  S
C863        C864   1.408       .  A
C863        C868   1.400       .  A
C863       Br870   1.930       .  S
C864        C865   1.408       .  A
C865        C866   1.405       .  A
C865       Br872   1.927       .  S
C866        C867   1.406       .  A
C866       Br871   1.929       .  S
C867        C868   1.405       .  A
C868       Br869   1.928       .  S
C873        C874   1.406       .  A
C873        C878   1.403       .  A
C873       Br880   1.932       .  S
C874        C875   1.410       .  A
C875        C876   1.411       .  A
C875       Br882   1.929       .  S
C876        C877   1.412       .  A
C876       Br881   1.929       .  S
C877        C878   1.412       .  A
C878       Br879   1.924       .  S
C883        C884   1.414       .  A
C883        C888   1.410       .  A
C883       Br890   1.929       .  S
C884        C885   1.415       .  A
C885        C886   1.404       .  A
C885       Br892   1.937       .  S
C886        C887   1.407       .  A
C886       Br891   1.931       .  S
C887        C888   1.408       .  A
C888       Br889   1.930       .  S
C893        C894   1.409       .  A
C893        C898   1.407       .  A
C893       Br900   1.931       .  S
C894        C895   1.409       .  A
C895        C896   1.406       .  A
C895       Br902   1.930       .  S
C896        C897   1.410       .  A
C896       Br901   1.930       .  S
C897        C898   1.412       .  A
C898       Br899   1.930       .  S
C903        C904   1.408       .  A
C903        C908   1.404       .  A
C903       Br910   1.928       .  S
C904        C905   1.411       .  A
C905        C906   1.408       .  A
C905       Br912   1.928       .  S
C906        C907   1.406       .  A
C906       Br911   1.927       .  S
C907        C908   1.411       .  A
C908       Br909   1.933       .  S
C913        C914   1.417       .  A
C913        C918   1.402       .  A
C913       Br920   1.938       .  S
C914        C915   1.415       .  A
C915        C916   1.411       .  A
C915       Br922   1.930       .  S
C916        C917   1.408       .  A
C916       Br921   1.927       .  S
C917        C918   1.409       .  A
C918       Br919   1.936       .  S
C923        C924   1.416       .  A
C923        C928   1.406       .  A
C923       Br930   1.934       .  S
C924        C925   1.417       .  A
C925        C926   1.408       .  A
C925       Br932   1.934       .  S
C926        C927   1.412       .  A
C926       Br931   1.934       .  S
C927        C928   1.409       .  A
C928       Br929   1.932       .  S
C933        C934   1.412       .  A
C933        C938   1.407       .  A
C933       Br940   1.928       .  S
C934        C935   1.409       .  A
C935        C936   1.401       .  A
C935       Br942   1.931       .  S
C936        C937   1.408       .  A
C936       Br941   1.934       .  S
C937        C938   1.406       .  A
C938       Br939   1.928       .  S
C943        C944   1.406       .  A
C943        C948   1.408       .  A
C943       Br950   1.931       .  S
C944        C945   1.408       .  A
C945        C946   1.408       .  A
C945       Br952   1.928       .  S
C946        C947   1.414       .  A
C946       Br951   1.931       .  S
C947        C948   1.412       .  A
C948       Br949   1.929       .  S
C953        C954   1.403       .  A
C953        C958   1.411       .  A
C953       Br960   1.936       .  S
C954        C955   1.401       .  A
C955        C956   1.411       .  A
C955       Br962   1.935       .  S
C956        C957   1.432       .  A
C956       Br961   1.938       .  S
C957        C958   1.431       .  A
C958       Br959   1.937       .  S
C963        C964   1.417       .  A
C963        C968   1.409       .  A
C963       Br970   1.931       .  S
C964        C965   1.416       .  A
C965        C966   1.404       .  A
C965       Br972   1.936       .  S
C966        C967   1.408       .  A
C966       Br971   1.935       .  S
C967        C968   1.405       .  A
C968       Br969   1.929       .  S
C973        C974   1.409       .  A
C973        C978   1.407       .  A
C973       Br980   1.931       .  S
C974        C975   1.413       .  A
C975        C976   1.411       .  A
C975       Br982   1.928       .  S
C976        C977   1.410       .  A
C976       Br981   1.931       .  S
C977        C978   1.410       .  A
C978       Br979   1.930       .  S
C983        C984   1.412       .  A
C983        C988   1.410       .  A
C983       Br990   1.929       .  S
C984        C985   1.410       .  A
C985        C986   1.407       .  A
C985       Br992   1.930       .  S
C986        C987   1.410       .  A
C986       Br991   1.931       .  S
C987        C988   1.409       .  A
C988       Br989   1.928       .  S
C993        C994   1.408       .  A
C993        C998   1.406       .  A
C993      Br1000   1.927       .  S
C994        C995   1.408   1_556  A
C995        C996   1.407       .  A
C996        C997   1.409   1_554  A
C996      Br1001   1.928       .  S
C997        C998   1.409       .  A
C998       Br999   1.930       .  S
C1003      C1008   1.405       .  A
C1003     Br1010   1.928       .  S
C1004      C1005   1.410       .  A
C1005      C1006   1.406       .  A
C1005     Br1012   1.929       .  S
C1006      C1007   1.407       .  A
C1006     Br1011   1.929       .  S
C1008     Br1009   1.929       .  S
C1013      C1014   1.408   1_554  A
C1013      C1018   1.407       .  A
C1014      C1015   1.408       .  A
C1015      C1016   1.404       .  A
C1015     Br1022   1.931       .  S
C1016      C1017   1.407       .  A
C1016     Br1021   1.925       .  S
C1017      C1018   1.409   1_556  A
C1023      C1024   1.409   1_554  A
C1024      C1025   1.411       .  A
C1025      C1026   1.410       .  A
C1025     Br1032   1.929       .  S
C1026      C1027   1.410       .  A
C1026     Br1031   1.930       .  S
C1028     Br1029   1.928       .  S
C1033      C1034   1.408       .  A
C1033      C1038   1.405       .  A
C1033     Br1040   1.932       .  S
C1035      C1036   1.407       .  A
C1035     Br1042   1.932       .  S
C1036     Br1041   1.930       .  S
C1037      C1038   1.415       .  A
C1038     Br1039   1.935       .  S
C1043      C1048   1.410       .  A
C1043     Br1050   1.932       .  S
C1044      C1045   1.416       .  A
C1045      C1046   1.408       .  A
C1045     Br1052   1.933       .  S
C1046      C1047   1.408       .  A
C1046     Br1051   1.932       .  S
C1048     Br1049   1.931       .  S
C1053      C1054   1.406       .  A
C1053      C1058   1.406       .  A
C1053     Br1060   1.936       .  S
C1055      C1056   1.407       .  A
C1055     Br1062   1.932       .  S
C1056     Br1061   1.934       .  S
C1057      C1058   1.419       .  A
C1058     Br1059   1.924       .  S
C1063      C1064   1.421       .  A
C1063      C1068   1.410       .  A
C1063     Br1070   1.933       .  S
C1065      C1066   1.411       .  A
C1065     Br1072   1.933       .  S
C1066     Br1071   1.931       .  S
C1067      C1068   1.408       .  A
C1068     Br1069   1.933       .  S
