geometry optimzed in LAMMPS
_audit_creation_date              2020-11-30 
_audit_creation_method            'lammps2cif' 
_symmetry_space_group_name_H-M    'P1' 
_symmetry_Int_Tables_number       1 
_symmetry_cell_setting            triclinic 
loop_ 
_symmetry_equiv_pos_as_xyz 
  x,y,z 
_cell_length_a                    49.06574997 
_cell_length_b                    48.993302458471526 
_cell_length_c                    102.99812943127408 
_cell_angle_alpha                 89.91551386779001 
_cell_angle_beta                  90.19032902708835 
_cell_angle_gamma                 120.00334417344813 
loop_ 
_atom_site_label 
_atom_site_type_symbol 
_atom_site_fract_x 
_atom_site_fract_y 
_atom_site_fract_z 
_atom_site_charge 
N1          N  0.11644242  0.48263703  0.52680608    -0.01200
C2          C  0.10851008  0.50000015  0.53445808     0.01400
C3          C  0.12651790  0.50907131  0.54563830    -0.21500
C4          C  0.14633502  0.49684681  0.54483415    -0.21700
C5          C  0.13963605  0.48084177  0.53318884     0.01300
H6          H  0.12555612  0.52327976  0.55346675     0.15100
H7          H  0.16386899  0.49955623  0.55191497     0.15100
N8          N  0.88796389  0.58811626  0.44078472    -0.01200
C9          C  0.89835000  0.57388124  0.43252735     0.01400
C10         C  0.88370167  0.56906010  0.42060003    -0.21500
C11         C  0.86350264  0.58080175  0.42155350    -0.21700
C12         C  0.86666072  0.59227892  0.43402544     0.01300
H13         H  0.88700558  0.55782065  0.41218770     0.15100
H14         H  0.84792965  0.58059807  0.41403743     0.15100
Fe15       Fe  0.95575726  0.65609725  0.56812018     1.65800
Fe16       Fe  0.03328878  0.69712151  0.57767998     1.73200
Fe17       Fe  0.00307264  0.73287181  0.55839838     1.54400
O18         O  0.97893408  0.70713833  0.54205119    -0.79400
O19         O  0.04459947  0.73890450  0.58689935    -0.77700
O20         O  0.94903848  0.65736754  0.54843221    -0.81900
O21         O  0.93176651  0.67987290  0.57243798    -0.76800
O22         O  0.04404452  0.74078732  0.54943177    -0.78600
O23         O  0.00666131  0.67344235  0.59389928    -0.81300
C24         C  0.93797208  0.70827068  0.57152278     0.99500
C25         C  0.95960603  0.67834053  0.53971738     1.06900
O26         O  0.99739135  0.69541340  0.56808650    -1.10300
O27         O  0.02621478  0.65596574  0.56914804    -0.72700
O28         O  0.97526678  0.62815780  0.56376331    -0.76200
O29         O  0.96306668  0.72994807  0.56645770    -0.76900
C30         C  0.00279712  0.63189653  0.56423921     0.98400
O31         O  0.95639316  0.64880299  0.58779562    -0.74800
O32         O  0.06562465  0.72157365  0.56310339    -0.80000
C33         C  0.04291581  0.76289315  0.58346711     1.01000
C34         C  0.06649241  0.73662480  0.55292759     1.06900
O35         O  0.02883495  0.76380772  0.57324413    -0.75700
C36         C  0.97754417  0.65649501  0.59634510     1.05200
N37         N  0.20298946  0.23958901  0.11248612    -0.01200
C38         C  0.20988157  0.22041198  0.10548507     0.01400
C39         C  0.18943576  0.20769231  0.09510864    -0.21500
C40         C  0.16922919  0.21947250  0.09571583    -0.21700
C41         C  0.17811478  0.23892361  0.10644236     0.01300
H42         H  0.18954033  0.19196255  0.08776393     0.15100
H43         H  0.15043663  0.21475543  0.08895501     0.15100
N44         N  0.44908922  0.14987003  0.19698725    -0.01200
C45         C  0.43941056  0.16452195  0.20535243     0.01400
C46         C  0.45467018  0.16940141  0.21713666    -0.21500
C47         C  0.47450386  0.15724627  0.21596028    -0.21700
C48         C  0.47053833  0.14547836  0.20350628     0.01300
H49         H  0.45200587  0.18092297  0.22559918     0.15100
H50         H  0.49036741  0.15736814  0.22331741     0.15100
Fe51       Fe  0.37678621  0.07969028  0.07019133     1.65800
Fe52       Fe  0.33095515  0.00293396  0.08026664     1.73200
Fe53       Fe  0.29965720  0.03651137  0.06029242     1.54400
O54         O  0.30618077  0.07860438  0.06773333    -0.79400
O55         O  0.30687224  0.97117559  0.06551412    -0.77700
O56         O  0.35611292  0.10662538  0.07441584    -0.81900
O57         O  0.37607674  0.08637526  0.05044054    -0.76800
O58         O  0.26790502  0.01402113  0.07520278    -0.78600
O59         O  0.37196459  0.00714956  0.07272810    -0.81300
C60         C  0.35532339  0.07609763  0.04161092     0.99500
C61         C  0.32862439  0.10265888  0.07312464     1.06900
O62         O  0.33576059  0.03965961  0.07025086    -1.10300
O63         O  0.35378952  0.02939002  0.09655675    -0.72700
O64         O  0.38372876  0.07892308  0.08988977    -0.76200
O65         O  0.32631058  0.05789180  0.04385673    -0.76900
C66         C  0.37312060  0.05822793  0.09871764     0.98400
O67         O  0.40172264  0.05693378  0.06604987    -0.74800
O68         O  0.28906948  0.99398990  0.08871869    -0.80000
C69         C  0.29178113  0.97074888  0.05542492     1.01000
C70         C  0.26694945  0.99881018  0.08533560     1.06900
O71         O  0.28827190  0.99366610  0.05198407    -0.75700
C72         C  0.39653435  0.02898294  0.06740644     1.05200
Fe73       Fe  0.28544610  0.32288144  0.23508585     1.65800
Fe74       Fe  0.33314875  0.40092580  0.22721605     1.73200
Fe75       Fe  0.36162268  0.36321269  0.24635184     1.54400
O76         O  0.33329416  0.33979769  0.26217537    -0.79400
O77         O  0.37524767  0.40993587  0.21892646    -0.77700
O78         O  0.28432042  0.31251484  0.25455566    -0.81900
O79         O  0.30572387  0.29610231  0.23011280    -0.76800
O80         O  0.37352561  0.40506192  0.25569758    -0.78600
O81         O  0.31083030  0.37750073  0.21020367    -0.81300
C82         C  0.33265544  0.29901904  0.23187263     0.99500
C83         C  0.30406456  0.32115477  0.26375089     1.06900
O84         O  0.32680037  0.36239180  0.23621272    -1.10300
O85         O  0.29211272  0.39647154  0.23489486    -0.72700
O86         O  0.26099620  0.34566346  0.23996645    -0.76200
O87         O  0.35472532  0.32184495  0.23800829    -0.76900
C88         C  0.26693662  0.37401192  0.23958893     0.98400
O89         O  0.28007507  0.32708545  0.21545873    -0.74800
O90         O  0.35709087  0.43035191  0.24266319    -0.80000
C91         C  0.39676954  0.40411809  0.22225056     1.01000
C92         C  0.37137535  0.42901798  0.25271412     1.06900
O93         O  0.39470415  0.38736256  0.23202416    -0.75700
C94         C  0.29132766  0.34917571  0.20722644     1.05200
N95         N  0.18607238  0.22177958  0.35623793    -0.01200
C96         C  0.16696133  0.22790722  0.36364060     0.01400
C97         C  0.15331335  0.20559094  0.37331643    -0.21500
C98         C  0.16446385  0.18499606  0.37184991    -0.21700
C99         C  0.18448407  0.19550998  0.36132984     0.01300
H100        H  0.13753189  0.20479551  0.38081778     0.15100
H101        H  0.15916983  0.16500857  0.37799220     0.15100
N102        N  0.12281433  0.49122370  0.27943614    -0.01200
C103        C  0.13981109  0.48298644  0.27170545     0.01400
C104        C  0.14813345  0.50041507  0.26039021    -0.21500
C105        C  0.13577439  0.52011849  0.26116207    -0.21700
C106        C  0.12041499  0.51394775  0.27292123     0.01300
H107        H  0.16148255  0.49876179  0.25238762     0.15100
H108        H  0.13751945  0.53687352  0.25388304     0.15100
Fe109      Fe  0.03553470  0.40132080  0.40272206     1.65800
Fe110      Fe  0.95832467  0.36092037  0.39274051     1.73200
Fe111      Fe  0.98803597  0.32417747  0.41182634     1.54400
O112        O  0.02881574  0.32792553  0.40423703    -0.79400
O113        O  0.92612681  0.33754402  0.40747203    -0.77700
O114        O  0.05953235  0.37790135  0.39808495    -0.81900
O115        O  0.04176389  0.39884258  0.42239915    -0.76800
O116        O  0.96424248  0.29433871  0.39650942    -0.78600
O117        O  0.96592773  0.40275473  0.40085776    -0.81300
C118        C  0.03033877  0.37761893  0.43101335     0.99500
C119        C  0.05365003  0.34966046  0.39905007     1.06900
O120        O  0.99389643  0.36210610  0.40243395    -1.10300
O121        O  0.98532508  0.38362761  0.37650520    -0.72700
O122        O  0.03523211  0.40954270  0.38313356    -0.76200
O123        O  0.01058871  0.34904297  0.42851997    -0.76900
C124        C  0.01450756  0.40118179  0.37435267     0.98400
O125        O  0.01619051  0.42913500  0.40726765    -0.74800
O126        O  0.94638086  0.31881433  0.38368378    -0.80000
C127        C  0.92459872  0.32110008  0.41727146     1.01000
C128        C  0.94966881  0.29543551  0.38650907     1.06900
O129        O  0.94616171  0.31515488  0.42029413    -0.75700
C130        C  0.98916501  0.42633607  0.40612580     1.05200
N131        N  0.53852940  0.91002262  0.02570899    -0.01200
C132        C  0.52247524  0.91819205  0.03402875     0.01400
C133        C  0.51434278  0.89975751  0.04506527    -0.21500
C134        C  0.52581418  0.87947062  0.04350420    -0.21700
C135        C  0.54045194  0.88631050  0.03157135     0.01300
H136        H  0.50152445  0.90098636  0.05336637     0.15100
H137        H  0.52386242  0.86180650  0.05035472     0.15100
N138        N  0.45324997  0.15166206  0.94413691    -0.01200
C139        C  0.47191760  0.14585333  0.93631431     0.01400
C140        C  0.47911410  0.16374967  0.92514679    -0.21500
C141        C  0.46433428  0.18123805  0.92611380    -0.21700
C142        C  0.44869838  0.17330529  0.93783130     0.01300
H143        H  0.49348534  0.16399173  0.91714626     0.15100
H144        H  0.46492928  0.19790103  0.91904756     0.15100
Fe145      Fe  0.61707427  0.98419527  0.89952929     1.65800
Fe146      Fe  0.66633201  0.06103302  0.89038083     1.73200
Fe147      Fe  0.69402311  0.02321404  0.90989644     1.54400
O148        O  0.66634470  0.00147505  0.92606789    -0.79400
O149        O  0.70767071  0.06843262  0.88207672    -0.77700
O150        O  0.61660137  0.97608725  0.91923835    -0.81900
O151        O  0.63558803  0.95536580  0.89509840    -0.76800
O152        O  0.70712998  0.06586600  0.91877546    -0.78600
O153        O  0.64335073  0.03637186  0.87373063    -0.81300
C154        C  0.66242121  0.95768826  0.89639015     0.99500
C155        C  0.63706303  0.98458485  0.92815460     1.06900
O156        O  0.65920023  0.02285376  0.89993070    -1.10300
O157        O  0.62620761  0.05875347  0.89786416    -0.72700
O158        O  0.59413881  0.00890757  0.90392075    -0.76200
O159        O  0.68554298  0.98089665  0.90190848    -0.76900
C160        C  0.60096076  0.03747087  0.90295649     0.98400
O161        O  0.61132040  0.98670994  0.87977656    -0.74800
O162        O  0.69096021  0.09108945  0.90553495    -0.80000
C163        C  0.72885035  0.06220679  0.88540297     1.01000
C164        C  0.70521063  0.08987106  0.91562039     1.06900
O165        O  0.72676829  0.04581705  0.89530014    -0.75700
C166        C  0.62316891  0.00798004  0.87118601     1.05200
N167        N  0.87700224  0.57615857  0.69328412    -0.01200
C168        C  0.86099007  0.58523935  0.70124229     0.01400
C169        C  0.85485615  0.56952261  0.71295571    -0.21500
C170        C  0.86744883  0.55001863  0.71220022    -0.21700
C171        C  0.88078929  0.55455376  0.70005318     0.01300
H172        H  0.84233690  0.57180504  0.72113401     0.15100
H173        H  0.86678861  0.53413520  0.71966977     0.15100
N174        N  0.80487548  0.83717733  0.61305673    -0.01200
C175        C  0.82439872  0.83097877  0.60595968     0.01400
C176        C  0.83924813  0.85370702  0.59651828    -0.21500
C177        C  0.82845448  0.87462425  0.59780093    -0.21700
C178        C  0.80745992  0.86390225  0.60799017     0.01300
H179        H  0.85557539  0.85454930  0.58926891     0.15100
H180        H  0.83457027  0.89492230  0.59172433     0.15100
N181        N  0.53408600  0.90379181  0.77568635    -0.01200
C182        C  0.54078066  0.88559749  0.76795842     0.01400
C183        C  0.51945903  0.87338026  0.75784006    -0.21500
C184        C  0.49886388  0.88449686  0.75939528    -0.21700
C185        C  0.50842707  0.90300757  0.77040956     0.01300
H186        H  0.51913195  0.85832281  0.75008838     0.15100
H187        H  0.47937065  0.87996897  0.75307624     0.15100
N188        N  0.77163410  0.80186876  0.86059739    -0.01200
C189        C  0.76242681  0.81794679  0.86845929     0.01400
C190        C  0.77834171  0.82469435  0.88015277    -0.21500
C191        C  0.79807660  0.81236457  0.87948898    -0.21700
C192        C  0.79348060  0.79856535  0.86741205     0.01300
H193        H  0.77610214  0.83751695  0.88824030     0.15100
H194        H  0.81422738  0.81359201  0.88695683     0.15100
Fe195      Fe  0.70318495  0.73879491  0.73327502     1.65800
Fe196      Fe  0.65615157  0.66113367  0.74180675     1.73200
Fe197      Fe  0.62608532  0.69802150  0.72305961     1.54400
O198        O  0.63305663  0.73922231  0.73157738    -0.79400
O199        O  0.63133917  0.63131039  0.72660285    -0.77700
O200        O  0.68322331  0.76610643  0.73808220    -0.81900
O201        O  0.70308691  0.74770299  0.71370535    -0.76800
O202        O  0.59369520  0.67345348  0.73763970    -0.78600
O203        O  0.69665862  0.66515822  0.73375695    -0.81300
C204        C  0.68247922  0.73953603  0.70487302     0.99500
C205        C  0.65593545  0.76278919  0.73701913     1.06900
O206        O  0.66175207  0.69928340  0.73271297    -1.10300
O207        O  0.67944674  0.68538760  0.75851972    -0.72700
O208        O  0.70935043  0.73576389  0.75296058    -0.76200
O209        O  0.65327683  0.72174355  0.70695242    -0.76900
C210        C  0.69863142  0.71392343  0.76132371     0.98400
O211        O  0.72766274  0.71576816  0.72846921    -0.74800
O212        O  0.61462719  0.65212866  0.75059733    -0.80000
C213        C  0.61677802  0.63251225  0.71661753     1.01000
C214        C  0.59250434  0.65715502  0.74745397     1.06900
O215        O  0.61438979  0.65634646  0.71365007    -0.75700
C216        C  0.72175791  0.68741083  0.72894076     1.05200
N217        N  0.32737736  0.48431083  0.77769866    -0.01200
C218        C  0.30152137  0.47609973  0.77025028     0.01400
C219        C  0.30941431  0.49544242  0.75950347    -0.21500
C220        C  0.34121996  0.51630960  0.76032656    -0.21700
C221        C  0.35159106  0.50897832  0.77155423     0.01300
H222        H  0.29373941  0.49440736  0.75185461     0.15100
H223        H  0.35530362  0.53465592  0.75342043     0.15100
N224        N  0.99563982  0.23002887  0.85968476    -0.01200
C225        C  0.02093117  0.23564654  0.86698622     0.01400
C226        C  0.01201111  0.21407756  0.87698924    -0.21500
C227        C  0.98001157  0.19444200  0.87581132    -0.21700
C228        C  0.97069536  0.20480233  0.86513377     0.01300
H229        H  0.02709670  0.21287022  0.88438582     0.15100
H230        H  0.96515127  0.17488305  0.88209809     0.15100
Fe231      Fe  0.99007740  0.31646958  0.73731376     1.65800
Fe232      Fe  0.02530213  0.39432462  0.72832181     1.73200
Fe233      Fe  0.95852640  0.36193331  0.74705423     1.54400
O234        O  0.92230964  0.32127680  0.73891664    -0.79400
O235        O  0.03283797  0.42542320  0.74334545    -0.77700
O236        O  0.94259822  0.29176686  0.73235379    -0.81900
O237        O  0.98099059  0.30869501  0.75691704    -0.76800
O238        O  0.95222213  0.38675242  0.73213153    -0.78600
O239        O  0.06005421  0.38742252  0.73644638    -0.81300
C240        C  0.97062996  0.31914759  0.76568328     0.99500
C241        C  0.91981596  0.29699141  0.73340687     1.06900
O242        O  0.99130235  0.35762571  0.73756185    -1.10300
O243        O  0.02214485  0.36868013  0.71177797    -0.72700
O244        O  0.99912369  0.31828342  0.71768470    -0.76200
O245        O  0.96111770  0.33847332  0.76342835    -0.76900
C246        C  0.01125352  0.33975518  0.70919286     0.98400
O247        O  0.03747876  0.33676540  0.74221215    -0.74800
O248        O  0.99465925  0.40595209  0.71941624    -0.80000
C249        C  0.01748974  0.42595539  0.75313410     1.01000
C250        C  0.96797721  0.40237517  0.72233758     1.06900
O251        O  0.99041146  0.40352058  0.75606120    -0.75700
C252        C  0.06120152  0.36437328  0.74149681     1.05200
Fe253      Fe  0.33090665  0.40417447  0.90183483     1.65800
Fe254      Fe  0.36448236  0.36011876  0.89275754     1.73200
Fe255      Fe  0.29680255  0.32646461  0.91095999     1.54400
O256        O  0.29977665  0.35193438  0.92751584    -0.79400
O257        O  0.33332687  0.31835897  0.88358630    -0.77700
O258        O  0.32165538  0.40222700  0.92146182    -0.81900
O259        O  0.28364315  0.38312775  0.89685769    -0.76800
O260        O  0.32716052  0.31472279  0.91989477    -0.78600
O261        O  0.36229914  0.38349253  0.87625372    -0.81300
C262        C  0.26026345  0.35542217  0.89771394     0.99500
C263        C  0.31016535  0.38082641  0.93001968     1.06900
O264        O  0.33075433  0.36354374  0.90185748    -1.10300
O265        O  0.39986560  0.40120431  0.90110118    -0.72700
O266        O  0.37821428  0.43009071  0.90677862    -0.76200
O267        O  0.26181430  0.33279949  0.90291591    -0.76900
C268        C  0.40152314  0.42562909  0.90613407     0.98400
O269        O  0.34010378  0.41158060  0.88220662    -0.74800
O270        O  0.37062899  0.33545449  0.90778999    -0.80000
C271        C  0.30590668  0.29593507  0.88612690     1.01000
C272        C  0.35420625  0.31897083  0.91729053     1.06900
O273        O  0.28989581  0.29606669  0.89575010    -0.75700
C274        C  0.35179865  0.40188581  0.87368474     1.05200
N275        N  0.32849928  0.47941911  0.02718406    -0.01200
C276        C  0.35373123  0.49725441  0.03485799     0.01400
C277        C  0.34428823  0.50438321  0.04635908    -0.21500
C278        C  0.31204251  0.49049046  0.04573981    -0.21700
C279        C  0.30309707  0.47544476  0.03388219     0.01300
H280        H  0.35926944  0.51853530  0.05426338     0.15100
H281        H  0.29685328  0.49164180  0.05305094     0.15100
N282        N  0.66502421  0.58167225  0.94443408    -0.01200
C283        C  0.64012245  0.56387877  0.93657175     0.01400
C284        C  0.64969580  0.55419969  0.92579168    -0.21500
C285        C  0.68164283  0.56643245  0.92704457    -0.21700
C286        C  0.69035646  0.58309285  0.93854805     0.01300
H287        H  0.63502852  0.53981218  0.91786510     0.15100
H288        H  0.69686702  0.56356654  0.92028063     0.15100
Fe289      Fe  0.66186541  0.65992397  0.06934202     1.65800
Fe290      Fe  0.62803474  0.70338482  0.07890733     1.73200
Fe291      Fe  0.69435432  0.73718408  0.05988132     1.54400
O292        O  0.73034108  0.73216614  0.06785739    -0.79400
O293        O  0.62094150  0.72795714  0.06410818    -0.77700
O294        O  0.70962445  0.68184053  0.07381953    -0.81900
O295        O  0.66968727  0.66124791  0.04960728    -0.76800
O296        O  0.70118144  0.76812136  0.07486945    -0.78600
O297        O  0.59266165  0.66255438  0.07058051    -0.81300
C298        C  0.68070000  0.68242514  0.04096008     0.99500
C299        C  0.73264505  0.70981908  0.07294737     1.06900
O300        O  0.66143104  0.70021521  0.06939297    -1.10300
O301        O  0.63076104  0.67981561  0.09524705    -0.72700
O302        O  0.65389518  0.65281059  0.08904677    -0.76200
O303        O  0.69131907  0.71136652  0.04341993    -0.76900
C304        C  0.64186938  0.66187455  0.09767245     0.98400
O305        O  0.61425420  0.63362773  0.06483406    -0.74800
O306        O  0.65950297  0.74494774  0.08799976    -0.80000
C307        C  0.63591438  0.74315080  0.05411076     1.01000
C308        C  0.68613631  0.76790650  0.08490308     1.06900
O309        O  0.66261554  0.74715220  0.05100315    -0.75700
C310        C  0.59101327  0.63822764  0.06547868     1.05200
N311        N  0.65720645  0.15673937  0.69160860    -0.01200
C312        C  0.68177073  0.17433945  0.69966166     0.01400
C313        C  0.67152025  0.18262159  0.71064173    -0.21500
C314        C  0.63948898  0.16962557  0.70934288    -0.21700
C315        C  0.63138695  0.15390988  0.69761696     0.01300
H316        H  0.68575943  0.19637551  0.71877910     0.15100
H317        H  0.62377028  0.17118650  0.71626437     0.15100
N318        N  0.00036724  0.24983730  0.61065397    -0.01200
C319        C  0.97533175  0.23457137  0.60257687     0.01400
C320        C  0.98461284  0.22809311  0.59089002    -0.21500
C321        C  0.01653901  0.23975483  0.59179650    -0.21700
C322        C  0.02549548  0.25286303  0.60400672     0.01300
H323        H  0.96973195  0.21594679  0.58264199     0.15100
H324        H  0.03154648  0.23865716  0.58438193     0.15100
N325        N  0.33380610  0.89109493  0.52172997    -0.01200
C326        C  0.35996867  0.89504042  0.52793986     0.01400
C327        C  0.35212635  0.87090685  0.53671575    -0.21500
C328        C  0.32001400  0.85146866  0.53592318    -0.21700
C329        C  0.30943282  0.86443091  0.52668382     0.01300
H330        H  0.36794691  0.86816926  0.54323449     0.15100
H331        H  0.30584542  0.83063244  0.54170781     0.15100
N332        N  0.65853808  0.16772706  0.44762256    -0.01200
C333        C  0.63293616  0.16117570  0.44031947     0.01400
C334        C  0.64121930  0.18265633  0.43031224    -0.21500
C335        C  0.67307744  0.20312294  0.43146523    -0.21700
C336        C  0.68302397  0.19339083  0.44214587     0.01300
H337        H  0.62584270  0.18309976  0.42285715     0.15100
H338        H  0.68750539  0.22257114  0.42505534     0.15100
Fe339      Fe  0.66638151  0.07586094  0.56768406     1.65800
Fe340      Fe  0.63726018  0.99931906  0.57762200     1.73200
Fe341      Fe  0.70389216  0.03539955  0.55883755     1.54400
O342        O  0.69933118  0.05656352  0.54209785    -0.79400
O343        O  0.67035311  0.99160251  0.58682804    -0.77700
O344        O  0.67686933  0.08418642  0.54825343    -0.81900
O345        O  0.71310821  0.10370220  0.57327844    -0.76800
O346        O  0.67457879  0.99225995  0.55019811    -0.78600
O347        O  0.63839429  0.02499335  0.59388454    -0.81300
C348        C  0.73746744  0.10099569  0.57236398     0.99500
C349        C  0.68852661  0.07473190  0.53965333     1.06900
O350        O  0.66917160  0.03678533  0.56803906    -1.10300
O351        O  0.60033755  0.00216303  0.56915422    -0.72700
O352        O  0.61933380  0.05153659  0.56206434    -0.76200
O353        O  0.73752136  0.07792783  0.56678980    -0.76900
C354        C  0.59718040  0.02318099  0.56323018     0.98400
O355        O  0.65555055  0.07399618  0.58707571    -0.74800
O356        O  0.63228983  0.96820786  0.56294688    -0.80000
C357        C  0.69789207  0.99747239  0.58397084     1.01000
C358        C  0.64838964  0.96855101  0.55326408     1.06900
O359        O  0.71280250  0.01337015  0.57409452    -0.75700
C360        C  0.64601035  0.05344785  0.59594365     1.05200
Fe361      Fe  0.32534548  0.98513606  0.40309587     1.65800
Fe362      Fe  0.35419421  0.06143272  0.39284357     1.73200
Fe363      Fe  0.28723720  0.02540995  0.41144010     1.54400
O364        O  0.25374393  0.98269573  0.40359172    -0.79400
O365        O  0.35879719  0.09262618  0.40737250    -0.77700
O366        O  0.27836686  0.95634037  0.39832334    -0.81900
O367        O  0.31653777  0.97868646  0.42273238    -0.76800
O368        O  0.27852871  0.04736174  0.39603061    -0.78600
O369        O  0.39124706  0.05909394  0.40142344    -0.81300
C370        C  0.30379157  0.98758217  0.43109276     0.99500
C371        C  0.25391668  0.95890184  0.39883733     1.06900
O372        O  0.32223941  0.02404074  0.40246003    -1.10300
O373        O  0.35334743  0.03542524  0.37678633    -0.72700
O374        O  0.33452067  0.98600945  0.38351335    -0.76200
O375        O  0.29159960  0.00439255  0.42829384    -0.76900
C376        C  0.34478619  0.00674338  0.37468397     0.98400
O377        O  0.37271617  0.00947940  0.40799352    -0.74800
O378        O  0.32117075  0.06890029  0.38341483    -0.80000
C379        C  0.34256812  0.09228167  0.41699951     1.01000
C380        C  0.29361539  0.06315982  0.38615301     1.06900
O381        O  0.31636231  0.06859187  0.42004743    -0.75700
C382        C  0.39471156  0.03787088  0.40696925     1.05200
N383        N  0.99343045  0.80069880  0.36011471    -0.01200
C384        C  0.01831825  0.81725225  0.36810989     0.01400
C385        C  0.00882680  0.82538862  0.37934949    -0.21500
C386        C  0.97687741  0.81341012  0.37822572    -0.21700
C387        C  0.96816428  0.79845146  0.36634374     0.01300
H388        H  0.02356225  0.83871564  0.38745676     0.15100
H389        H  0.96171674  0.81553209  0.38526840     0.15100
N390        N  0.33459023  0.90847176  0.27802748    -0.01200
C391        C  0.30971498  0.89015619  0.27023750     0.01400
C392        C  0.31942410  0.88029675  0.25955518    -0.21500
C393        C  0.35144127  0.89301679  0.26077881    -0.21700
C394        C  0.36004883  0.91012401  0.27216990     0.01300
H395        H  0.30481993  0.86557935  0.25168466     0.15100
H396        H  0.36679602  0.89027952  0.25404384     0.15100
N397        N  0.99887246  0.83219657  0.11045618    -0.01200
C398        C  0.97333652  0.82512368  0.10298571     0.01400
C399        C  0.98174246  0.84593195  0.09271853    -0.21500
C400        C  0.01354927  0.86656992  0.09388948    -0.21700
C401        C  0.02337409  0.85762524  0.10483980     0.01300
H402        H  0.96639512  0.84606523  0.08517525     0.15100
H403        H  0.02795990  0.88587432  0.08741497     0.15100
N404        N  0.66404642  0.57354995  0.19276734    -0.01200
C405        C  0.69037019  0.58235868  0.19996915     0.01400
C406        C  0.68318556  0.56416848  0.21104518    -0.21500
C407        C  0.65131861  0.54338137  0.21068753    -0.21700
C408        C  0.64022721  0.54961152  0.19939451     0.01300
H409        H  0.69939071  0.56583992  0.21857832     0.15100
H410        H  0.63769163  0.52574562  0.21791669     0.15100
Fe411      Fe  0.00117921  0.74217447  0.23275517     1.65800
Fe412      Fe  0.96724279  0.66389503  0.24094239     1.73200
Fe413      Fe  0.03537120  0.69911120  0.22304534     1.54400
O414        O  0.03275915  0.72276715  0.20674093    -0.79400
O415        O  0.99799451  0.65250030  0.24986502    -0.77700
O416        O  0.01110988  0.75101906  0.21322134    -0.81900
O417        O  0.04836258  0.76795845  0.23805039    -0.76800
O418        O  0.00496939  0.65749402  0.21367880    -0.78600
O419        O  0.96917642  0.68809688  0.25769459    -0.81300
C420        C  0.07181079  0.76378366  0.23707146     0.99500
C421        C  0.02259492  0.74158296  0.20449708     1.06900
O422        O  0.00126259  0.70168050  0.23224048    -1.10300
O423        O  0.93219286  0.67027703  0.23282926    -0.72700
O424        O  0.95393806  0.72111501  0.22753271    -0.76200
O425        O  0.07036288  0.74001572  0.23151731    -0.76900
C426        C  0.93061377  0.69324774  0.22796914     0.98400
O427        O  0.99128438  0.73883516  0.25236068    -0.74800
O428        O  0.96117779  0.63430406  0.22557624    -0.80000
C429        C  0.02547309  0.65765848  0.24742116     1.01000
C430        C  0.97767944  0.63471450  0.21605664     1.06900
O431        O  0.04189807  0.67452499  0.23799614    -0.75700
C432        C  0.97944874  0.71672617  0.26060354     1.05200
N433        N  0.12049220  0.69485972  0.77895692    -0.01200
C434        C  0.13937464  0.72066321  0.77174550     0.01400
C435        C  0.14893804  0.71201642  0.76065942    -0.21500
C436        C  0.13548623  0.67973462  0.76105143    -0.21700
C437        C  0.11823314  0.66992000  0.77236370     0.01300
H438        H  0.16398187  0.72750172  0.75308036     0.15100
H439        H  0.13798433  0.66504413  0.75386291     0.15100
N440        N  0.19567198  0.02824813  0.85922955    -0.01200
C441        C  0.17609239  0.00272179  0.86640106     0.01400
C442        C  0.16256021  0.01118925  0.87617418    -0.21500
C443        C  0.17433177  0.04315710  0.87498980    -0.21700
C444        C  0.19453894  0.05291218  0.86452831     0.01300
H445        H  0.14622674  0.99586875  0.88347405     0.15100
H446        H  0.16911335  0.05774424  0.88120510     0.15100
Fe447      Fe  0.28405358  0.03110668  0.73775986     1.65800
Fe448      Fe  0.36220740  0.06504424  0.74617128     1.73200
Fe449      Fe  0.32744951  0.99774287  0.72761990     1.54400
O450        O  0.28659388  0.96227389  0.73587717    -0.79400
O451        O  0.39213897  0.07199773  0.73078418    -0.77700
O452        O  0.25881075  0.98389578  0.74305231    -0.81900
O453        O  0.27483036  0.02125251  0.71821106    -0.76800
O454        O  0.35178010  0.99058871  0.74240778    -0.78600
O455        O  0.35559643  0.10029658  0.73835930    -0.81300
C456        C  0.28485520  0.01073201  0.70932769     0.99500
C457        C  0.26314946  0.96057511  0.74177715     1.06900
O458        O  0.32464083  0.03132677  0.73717753    -1.10300
O459        O  0.33776075  0.06218878  0.76301061    -0.72700
O460        O  0.28737148  0.04095480  0.75734560    -0.76200
O461        O  0.30412260  0.00110169  0.71140839    -0.76900
C462        C  0.30912094  0.05211656  0.76575553     0.98400
O463        O  0.30500382  0.07831275  0.73260628    -0.74800
O464        O  0.37364502  0.03390593  0.75473888    -0.80000
C465        C  0.39190618  0.05591289  0.72109668     1.01000
C466        C  0.36852841  0.00653422  0.75195858     1.06900
O467        O  0.36914756  0.02870062  0.71849122    -0.75700
C468        C  0.33274750  0.10174471  0.73328250     1.05200
N469        N  0.78386567  0.03036801  0.35962867    -0.01200
C470        C  0.77500838  0.00563539  0.36775521     0.01400
C471        C  0.79098573  0.01558109  0.37941172    -0.21500
C472        C  0.81044690  0.04768535  0.37841603    -0.21700
C473        C  0.80556067  0.05598247  0.36618739     0.01300
H474        H  0.78884149  0.00105527  0.38770816     0.15100
H475        H  0.82644502  0.06322768  0.38578204     0.15100
N476        N  0.55140593  0.69539141  0.27427330    -0.01200
C477        C  0.56052379  0.71952408  0.26575036     0.01400
C478        C  0.54623156  0.70834185  0.25384686    -0.21500
C479        C  0.52754000  0.67619237  0.25508654    -0.21700
C480        C  0.53114301  0.66897728  0.26769856     0.01300
H481        H  0.54858705  0.72215194  0.24527232     0.15100
H482        H  0.51242864  0.65996042  0.24768500     0.15100
N483        N  0.13710317  0.70309538  0.02324610    -0.01200
C484        C  0.13286013  0.67679859  0.02940982     0.01400
C485        C  0.15476326  0.68462955  0.03922473    -0.21500
C486        C  0.17320228  0.71694753  0.03911244    -0.21700
C487        C  0.16183771  0.72759270  0.02923309     0.01300
H488        H  0.15671112  0.66862414  0.04591529     0.15100
H489        H  0.19243647  0.73115673  0.04567039     0.15100
N490        N  0.86410270  0.35763463  0.94413119    -0.01200
C491        C  0.86900620  0.38290957  0.93698181     0.01400
C492        C  0.84764617  0.37362128  0.92687293    -0.21500
C493        C  0.82892225  0.34139733  0.92782214    -0.21700
C494        C  0.83957908  0.33230928  0.93847975     0.01300
H495        H  0.84621760  0.38856230  0.91946902     0.15100
H496        H  0.81003055  0.32620685  0.92130021     0.15100
N497        N  0.78043084  0.03420389  0.10768852    -0.01200
C498        C  0.79705583  0.05889443  0.09962970     0.01400
C499        C  0.80645711  0.04930604  0.08876461    -0.21500
C500        C  0.79518032  0.01749446  0.09018619    -0.21700
C501        C  0.77940641  0.00898687  0.10187049     0.01300
H502        H  0.82033256  0.06392878  0.08075317     0.15100
H503        H  0.79833865  0.00230788  0.08348388     0.15100
N504        N  0.87670093  0.36706391  0.19227036    -0.01200
C505        C  0.85932261  0.34269456  0.20039098     0.01400
C506        C  0.85099403  0.35316484  0.21130100    -0.21500
C507        C  0.86374592  0.38518470  0.20986575    -0.21700
C508        C  0.87933157  0.39296261  0.19813701     0.01300
H509        H  0.83728880  0.33907483  0.21945469     0.15100
H510        H  0.86199577  0.40106585  0.21666302     0.15100
Fe511      Fe  0.95705035  0.37076138  0.06725092     1.65800
Fe512      Fe  0.03373591  0.40140456  0.07728536     1.73200
Fe513      Fe  0.99856486  0.33420693  0.05867999     1.54400
O514        O  0.95646184  0.30017521  0.06659558    -0.79400
O515        O  0.06430009  0.40766337  0.06226869    -0.77700
O516        O  0.92959218  0.32386080  0.07255358    -0.81900
O517        O  0.94911112  0.36031314  0.04772206    -0.76800
O518        O  0.02138132  0.32617717  0.07389118    -0.78600
O519        O  0.02952937  0.43788544  0.06927430    -0.81300
C520        C  0.95851050  0.34814192  0.03930013     0.99500
C521        C  0.93276087  0.29974238  0.07171855     1.06900
O522        O  0.99649076  0.36875270  0.06774516    -1.10300
O523        O  0.00784727  0.39854729  0.09367397    -0.72700
O524        O  0.95883868  0.38125572  0.08676697    -0.76200
O525        O  0.97677127  0.33760518  0.04195952    -0.76900
C526        C  0.97928642  0.39038194  0.09571491     0.98400
O527        O  0.98048909  0.41777340  0.06174367    -0.74800
O528        O  0.04365227  0.36949269  0.08616516    -0.80000
C529        C  0.06403369  0.39130440  0.05267229     1.01000
C530        C  0.03810216  0.34194764  0.08347824     1.06900
O531        O  0.04109005  0.36425561  0.04998561    -0.75700
C532        C  0.00843277  0.44042406  0.06316050     1.05200
Fe533      Fe  0.70727343  0.03100653  0.23337794     1.65800
Fe534      Fe  0.62982999  0.00020539  0.22446586     1.73200
Fe535      Fe  0.66555817  0.06587355  0.24395541     1.54400
O536        O  0.68815987  0.06089308  0.26005075    -0.79400
O537        O  0.62021927  0.03299360  0.21629905    -0.77700
O538        O  0.71601958  0.03937221  0.25299578    -0.81900
O539        O  0.73407475  0.07851228  0.22884729    -0.76800
O540        O  0.62339927  0.03499504  0.25277020    -0.78600
O541        O  0.65460817  0.00343689  0.20769816    -0.81300
C542        C  0.73069971  0.10233329  0.23047859     0.99500
C543        C  0.70674687  0.05036529  0.26196943     1.06900
O544        O  0.66751519  0.03237484  0.23393517    -1.10300
O545        O  0.63448938  0.96339351  0.23180997    -0.72700
O546        O  0.68462202  0.98335975  0.23792276    -0.76200
O547        O  0.70717929  0.10103130  0.23615237    -0.76900
C548        C  0.65655747  0.96063428  0.23691487     0.98400
O549        O  0.70455143  0.02259573  0.21364982    -0.74800
O550        O  0.59964220  0.99306661  0.23974251    -0.80000
C551        C  0.62575988  0.06025554  0.21952354     1.01000
C552        C  0.60020217  0.00838862  0.24975289     1.06900
O553        O  0.64216837  0.07503022  0.22934294    -0.75700
C554        C  0.68314813  0.01268213  0.20509095     1.05200
Fe555      Fe  0.03752595  0.69338002  0.90229087     1.65800
Fe556      Fe  0.95947582  0.65866865  0.89360844     1.73200
Fe557      Fe  0.99378779  0.72731265  0.91130578     1.54400
O558        O  0.01714070  0.72542019  0.92782941    -0.79400
O559        O  0.94654721  0.68851120  0.88485741    -0.77700
O560        O  0.04640659  0.70463506  0.92174456    -0.81900
O561        O  0.06291803  0.74024604  0.89664144    -0.76800
O562        O  0.95203697  0.69676023  0.92046331    -0.78600
O563        O  0.98419911  0.66164837  0.87681950    -0.81300
C564        C  0.05864825  0.76366696  0.89753788     0.99500
C565        C  0.03651230  0.71610224  0.93028950     1.06900
O566        O  0.99687628  0.69312400  0.90240107    -1.10300
O567        O  0.96677704  0.62399686  0.90148450    -0.72700
O568        O  0.01686931  0.64655441  0.90792943    -0.76200
O569        O  0.03481187  0.76225079  0.90296936    -0.76900
C570        C  0.98941226  0.62285408  0.90690752     0.98400
O571        O  0.03437028  0.68219390  0.88282021    -0.74800
O572        O  0.92988544  0.65187400  0.90911796    -0.80000
C573        C  0.95154287  0.71606832  0.88710285     1.01000
C574        C  0.92978190  0.66894703  0.91835830     1.06900
O575        O  0.96927810  0.73334526  0.89619085    -0.75700
C576        C  0.01285797  0.67111402  0.87428745     1.05200
N577        N  0.43458301  0.36077480  0.43954368    -0.01200
C578        C  0.44960276  0.38560359  0.43138693     0.01400
C579        C  0.45085123  0.37533375  0.41904255    -0.21500
C580        C  0.43611190  0.34295809  0.41963151    -0.21700
C581        C  0.42646225  0.33475986  0.43231374     0.01300
H582        H  0.46196734  0.38984175  0.41060353     0.15100
H583        H  0.43340910  0.32720167  0.41174844     0.15100
N584        N  0.55863257  0.70099328  0.52831352    -0.01200
C585        C  0.54229328  0.67626930  0.53642606     0.01400
C586        C  0.53678999  0.68650390  0.54808577    -0.21500
C587        C  0.55015923  0.71869514  0.54712904    -0.21700
C588        C  0.56329620  0.72688868  0.53491831     0.01300
H589        H  0.52403392  0.67206876  0.55632820     0.15100
H590        H  0.54999559  0.73436794  0.55448484     0.15100
Fe591      Fe  0.62365764  0.69674446  0.40166957     1.65800
Fe592      Fe  0.66616716  0.66257079  0.39135200     1.73200
Fe593      Fe  0.70173920  0.72977622  0.40994014     1.54400
O594        O  0.69610109  0.76535346  0.40200099    -0.79400
O595        O  0.69135368  0.65566287  0.40592608    -0.77700
O596        O  0.64502254  0.74438325  0.39735959    -0.81900
O597        O  0.62659980  0.70456117  0.42143232    -0.76800
O598        O  0.73161555  0.73579414  0.39462446    -0.78600
O599        O  0.62575836  0.62738968  0.39988025    -0.81300
C600        C  0.64866748  0.71651702  0.42969922     0.99500
C601        C  0.67302540  0.76737393  0.39759726     1.06900
O602        O  0.66391683  0.69638253  0.40097470    -1.10300
O603        O  0.64194396  0.66558267  0.37531979    -0.72700
O604        O  0.61540556  0.68889503  0.38198058    -0.76200
O605        O  0.67738774  0.72771499  0.42673404    -0.76900
C606        C  0.62408960  0.67692428  0.37316785     0.98400
O607        O  0.59741914  0.64917908  0.40609589    -0.74800
O608        O  0.70725620  0.69330420  0.38192100    -0.80000
C609        C  0.70758279  0.67123106  0.41566369     1.01000
C610        C  0.73065100  0.71991542  0.38473060     1.06900
O611        O  0.71218576  0.69827098  0.41866515    -0.75700
C612        C  0.60175024  0.62581307  0.40518254     1.05200
N613        N  0.44718047  0.36440700  0.69333769    -0.01200
C614        C  0.43958131  0.33975625  0.70139988     0.01400
C615        C  0.45785129  0.34984333  0.71250313    -0.21500
C616        C  0.47740928  0.38187852  0.71123327    -0.21700
C617        C  0.47033366  0.39007283  0.69939800     0.01300
H618        H  0.45703287  0.33547026  0.72064897     0.15100
H619        H  0.49478001  0.39748000  0.71819981     0.15100
N620        N  0.20646875  0.03048786  0.61182835    -0.01200
C621        C  0.21205767  0.05547650  0.60428791     0.01400
C622        C  0.19239309  0.04556837  0.59359122    -0.21500
C623        C  0.17405611  0.01333419  0.59454823    -0.21700
C624        C  0.18321467  0.00478598  0.60579437     0.01300
H625        H  0.19171730  0.06017059  0.58584307     0.15100
H626        H  0.15624087  0.99779858  0.58771010     0.15100
Fe627      Fe  0.37318163  0.36469035  0.56789882     1.65800
Fe628      Fe  0.32971590  0.39916571  0.57653015     1.73200
Fe629      Fe  0.29637571  0.33219173  0.55775146     1.54400
O630        O  0.32282344  0.33541635  0.54153548    -0.79400
O631        O  0.28726788  0.36812051  0.58510349    -0.77700
O632        O  0.37242288  0.35578685  0.54827487    -0.81900
O633        O  0.35095096  0.31717638  0.57272201    -0.76800
O634        O  0.28622191  0.36374888  0.54871243    -0.78600
O635        O  0.35160306  0.39598539  0.59326090    -0.81300
C636        C  0.32318671  0.29404980  0.57146873     0.99500
C637        C  0.35171182  0.34523259  0.53941694     1.06900
O638        O  0.33304507  0.36535650  0.56739355    -1.10300
O639        O  0.37149165  0.43434906  0.56877127    -0.72700
O640        O  0.39991192  0.41213055  0.56317490    -0.76200
O641        O  0.30129314  0.29619391  0.56585261    -0.76900
C642        C  0.39584413  0.43572201  0.56388062     0.98400
O643        O  0.37966029  0.37360523  0.58756597    -0.74800
O644        O  0.30670412  0.40661835  0.56126072    -0.80000
C645        C  0.26467414  0.34100191  0.58223019     1.01000
C646        C  0.29091674  0.39096538  0.55147351     1.06900
O647        O  0.26502688  0.32519376  0.57254786    -0.75700
C648        C  0.36972338  0.38530305  0.59598015     1.05200
C649        C  0.29532911  0.20875773  0.58870990     0.19300
C650        C  0.30578742  0.18798985  0.58503512    -0.09800
C651        C  0.29270409  0.15802719  0.59071900    -0.10700
C652        C  0.26911466  0.14858113  0.60015938     0.20900
C653        C  0.25910493  0.16959417  0.60401314    -0.12700
C654        C  0.27219163  0.19955206  0.59833516    -0.11000
C655        C  0.25257365  0.11622478  0.60462081     0.01800
C656        C  0.23567334  0.08815527  0.60618860    -0.31000
C657        C  0.30728357  0.23893541  0.58229897     0.03200
C658        C  0.31562977  0.26406603  0.57708734    -0.32700
H659        H  0.32352940  0.19467277  0.57757876     0.14200
H660        H  0.30032345  0.14189142  0.58747297     0.14100
H661        H  0.24054438  0.16249483  0.61112486     0.13900
H662        H  0.26375484  0.21526445  0.60124257     0.13000
C663        C  0.39654660  0.38002509  0.63306470     0.19300
C664        C  0.37616777  0.37267354  0.64366489    -0.09800
C665        C  0.38525829  0.36787209  0.65598744    -0.10700
C666        C  0.41474036  0.37030583  0.65778565     0.20900
C667        C  0.43514332  0.37778867  0.64719354    -0.12700
C668        C  0.42606574  0.38258902  0.63488605    -0.11000
C669        C  0.42448296  0.36594236  0.67050735     0.01800
C670        C  0.43417816  0.36411836  0.68109369    -0.31000
C671        C  0.38690729  0.38392138  0.62024785     0.03200
C672        C  0.37905685  0.38569884  0.60928255    -0.32700
H673        H  0.35324996  0.37051236  0.64239394     0.14200
H674        H  0.36931458  0.36226445  0.66410059     0.14100
H675        H  0.45804924  0.37990965  0.64844892     0.13900
H676        H  0.44201321  0.38815099  0.62677565     0.13000
C677        C  0.61902490  0.71076521  0.46723144     0.19300
C678        C  0.59275978  0.68220757  0.47102898    -0.09800
C679        C  0.58004783  0.67893570  0.48348967    -0.10700
C680        C  0.59350453  0.70420620  0.49226059     0.20900
C681        C  0.61996995  0.73263140  0.48850896    -0.12700
C682        C  0.63267634  0.73590132  0.47605441    -0.11000
C683        C  0.58002081  0.70131541  0.50501376     0.01800
C684        C  0.56960015  0.70042192  0.51574043    -0.31000
C685        C  0.63138725  0.71443655  0.45420708     0.03200
C686        C  0.64035200  0.71650644  0.44312278    -0.32700
H687        H  0.58193542  0.66256632  0.46431822     0.14200
H688        H  0.55961727  0.65682902  0.48624009     0.14100
H689        H  0.63063410  0.75236448  0.49517918     0.13900
H690        H  0.65294451  0.75809813  0.47327171     0.13000
C691        C  0.45790692  0.52092805  0.54778158     0.19300
C692        C  0.44457949  0.53690948  0.54150632    -0.09800
C693        C  0.46385746  0.56724845  0.53652755    -0.10700
C694        C  0.49667581  0.58188213  0.53773292     0.20900
C695        C  0.51006155  0.56561310  0.54373758    -0.12700
C696        C  0.49075496  0.53522046  0.54871884    -0.11000
C697        C  0.51603724  0.61479098  0.53434235     0.01800
C698        C  0.53004636  0.64325113  0.53366939    -0.31000
C699        C  0.43774199  0.49049327  0.55365321     0.03200
C700        C  0.41952728  0.46540757  0.55853598    -0.32700
H701        H  0.41924116  0.52621948  0.54073569     0.14200
H702        H  0.45312782  0.57967552  0.53210639     0.14100
H703        H  0.53534942  0.57678336  0.54492798     0.13900
H704        H  0.50139695  0.52320849  0.55356476     0.13000
C705        C  0.54142858  0.54071553  0.42167513     0.19300
C706        C  0.55342913  0.52051150  0.42398397    -0.09800
C707        C  0.53384892  0.49015589  0.42885275    -0.10700
C708        C  0.50212178  0.47975605  0.43149354     0.20900
C709        C  0.49031102  0.50025884  0.42952484    -0.12700
C710        C  0.50993653  0.53068332  0.42465830    -0.11000
C711        C  0.48115471  0.44698007  0.43456296     0.01800
C712        C  0.46510532  0.41859229  0.43474970    -0.31000
C713        C  0.56120765  0.57115847  0.41580193     0.03200
C714        C  0.57883517  0.59618756  0.41077019    -0.32700
H715        H  0.57769951  0.52793225  0.42171367     0.14200
H716        H  0.54319412  0.47442505  0.43014642     0.14100
H717        H  0.46575284  0.49240284  0.43134716     0.13900
H718        H  0.50035747  0.54606125  0.42291428     0.13000
C719        C  0.38385804  0.35055599  0.50234556     0.19300
C720        C  0.37719995  0.32381600  0.49502671    -0.09800
C721        C  0.38902315  0.32708705  0.48240854    -0.10700
C722        C  0.40763578  0.35713242  0.47700283     0.20900
C723        C  0.41437551  0.38389848  0.48432735    -0.12700
C724        C  0.40254792  0.38062536  0.49695462    -0.11000
C725        C  0.41913395  0.36027553  0.46386861     0.01800
C726        C  0.42715077  0.36132645  0.45270303    -0.31000
C727        C  0.37155101  0.34719421  0.51535196     0.03200
C728        C  0.36182511  0.34529451  0.52628679    -0.32700
H729        H  0.36280616  0.30044181  0.49905819     0.14200
H730        H  0.38354353  0.30619647  0.47684894     0.14100
H731        H  0.42864272  0.40726147  0.48026448     0.13900
H732        H  0.40789726  0.40150602  0.50249359     0.13000
C733        C  0.94387848  0.38236178  0.13234762     0.19300
C734        C  0.91416684  0.35592777  0.13461975    -0.09800
C735        C  0.90015048  0.35094092  0.14689161    -0.10700
C736        C  0.91575206  0.37233862  0.15701050     0.20900
C737        C  0.94547431  0.39872600  0.15474441    -0.12700
C738        C  0.95948781  0.40370997  0.14247755    -0.11000
C739        C  0.90105713  0.36788164  0.16959451     0.01800
C740        C  0.88943958  0.36631896  0.18011552    -0.31000
C741        C  0.95821510  0.38745088  0.11964527     0.03200
C742        C  0.96899242  0.39021649  0.10884559    -0.32700
H743        H  0.90179064  0.33920959  0.12689132     0.14200
H744        H  0.87713084  0.33053203  0.14846410     0.14100
H745        H  0.95775742  0.41555577  0.16244882     0.13900
H746        H  0.98241687  0.42422742  0.14088803     0.13000
C747        C  0.79025629  0.18849960  0.21476386     0.19300
C748        C  0.81868970  0.21087480  0.22050112    -0.09800
C749        C  0.83562370  0.24134525  0.21533191    -0.10700
C750        C  0.82430111  0.24965118  0.20437410     0.20900
C751        C  0.79612227  0.22711640  0.19851800    -0.12700
C752        C  0.77920000  0.19664252  0.20368145    -0.11000
C753        C  0.83965895  0.28208738  0.20014146     0.01800
C754        C  0.85043543  0.31008358  0.19864052    -0.31000
C755        C  0.77155994  0.15776135  0.22057048     0.03200
C756        C  0.75408973  0.13228570  0.22530092    -0.32700
H757        H  0.82739347  0.20499630  0.22912127     0.14200
H758        H  0.85708740  0.25867936  0.22009505     0.14100
H759        H  0.78680575  0.23333578  0.19019186     0.13900
H760        H  0.75713188  0.17964687  0.19920675     0.13000
C761        C  0.83678646  0.15220248  0.09691393     0.19300
C762        C  0.82461789  0.17271399  0.09723248    -0.09800
C763        C  0.84246593  0.20350990  0.09239087    -0.10700
C764        C  0.87244265  0.21378362  0.08716444     0.20900
C765        C  0.88460865  0.19332425  0.08699020    -0.12700
C766        C  0.86687599  0.16270879  0.09182399    -0.11000
C767        C  0.89092388  0.24501774  0.08179695     0.01800
C768        C  0.90877175  0.27041494  0.07711203    -0.31000
C769        C  0.81808100  0.11961179  0.10074378     0.03200
C770        C  0.80590136  0.09135505  0.10179365    -0.32700
H771        H  0.80124864  0.16477947  0.10100773     0.14200
H772        H  0.83278834  0.21910543  0.09257552     0.14100
H773        H  0.90770584  0.20093087  0.08296970     0.13900
H774        H  0.87641913  0.14700487  0.09137593     0.13000
C775        C  0.71503090  0.01964790  0.16791409     0.19300
C776        C  0.69569772  0.00544083  0.15706806    -0.09800
C777        C  0.70892241  0.00995247  0.14465055    -0.10700
C778        C  0.74156761  0.02875768  0.14299203     0.20900
C779        C  0.76084337  0.04304380  0.15382978    -0.12700
C780        C  0.74764047  0.03853230  0.16623012    -0.11000
C781        C  0.75542929  0.03251777  0.13028497     0.01800
C782        C  0.76717222  0.03423170  0.11979300    -0.31000
C783        C  0.70166056  0.01511707  0.18077062     0.03200
C784        C  0.69209822  0.01282485  0.19175923    -0.32700
H785        H  0.67045848  0.99081285  0.15821262     0.14200
H786        H  0.69374799  0.99863551  0.13637208     0.14100
H787        H  0.78610962  0.05750571  0.15270755     0.13900
H788        H  0.76287074  0.04968438  0.17450968     0.13000
C789        C  0.92815640  0.35004781  0.00246358     0.19300
C790        C  0.92213070  0.37463643  0.99984539    -0.09800
C791        C  0.91075967  0.37699092  0.98765327    -0.10700
C792        C  0.90532426  0.35478037  0.97795340     0.20900
C793        C  0.91153876  0.33027932  0.98052630    -0.12700
C794        C  0.92293578  0.32792467  0.99273780    -0.11000
C795        C  0.89234561  0.35657987  0.96557116     0.01800
C796        C  0.88002977  0.35752553  0.95551935    -0.31000
C797        C  0.93925675  0.34750272  0.01518442     0.03200
C798        C  0.94819646  0.34680898  0.02607645    -0.32700
H799        H  0.92601458  0.39188285  0.00726792     0.14200
H800        H  0.90594258  0.39595376  0.98583141     0.14100
H801        H  0.90731265  0.31285464  0.97313924     0.13900
H802        H  0.92744595  0.30878245  0.99461880     0.13000
C803        C  0.96093004  0.53728609  0.92359332     0.19300
C804        C  0.97150214  0.51635658  0.92035011    -0.09800
C805        C  0.95633707  0.48568508  0.92541711    -0.10700
C806        C  0.93056835  0.47577027  0.93378264     0.20900
C807        C  0.92052098  0.49696914  0.93726217    -0.12700
C808        C  0.93566911  0.52759752  0.93220695    -0.11000
C809        C  0.91212320  0.44301502  0.93748241     0.01800
C810        C  0.89382761  0.41513733  0.93867936    -0.31000
C811        C  0.97447757  0.56796498  0.91755074    -0.14800
C812        C  0.98299774  0.59327542  0.91251649    -0.32700
H813        H  0.99085860  0.52343954  0.91364710     0.14200
H814        H  0.96405415  0.46940856  0.92248236     0.14100
H815        H  0.90035232  0.48951697  0.94354439     0.13900
H816        H  0.92711550  0.54344947  0.93473489     0.13000
C817        C  0.04139550  0.52459371  0.04438527     0.19300
C818        C  0.06937333  0.53470591  0.03743079    -0.09800
C819        C  0.08448402  0.56449553  0.03156328    -0.10700
C820        C  0.07168685  0.58438850  0.03255570     0.20900
C821        C  0.04324108  0.57390288  0.03918864    -0.12700
C822        C  0.02812488  0.54410148  0.04506077    -0.11000
C823        C  0.08984515  0.61685730  0.02841288     0.01800
C824        C  0.10796334  0.64479338  0.02724833    -0.31000
C825        C  0.02726745  0.49490995  0.05128382     0.03200
C826        C  0.01734115  0.47017538  0.05701741    -0.32700
H827        H  0.07996117  0.51993033  0.03684965     0.14200
H828        H  0.10670440  0.57244431  0.02665504     0.14100
H829        H  0.03333254  0.58918891  0.04021668     0.13900
H830        H  0.00657567  0.53664936  0.05042259     0.13000
C831        C  0.09291296  0.70927096  0.99088659     0.19300
C832        C  0.09831138  0.73873519  0.98655331    -0.09800
C833        C  0.08596047  0.74136451  0.97461717    -0.10700
C834        C  0.06813054  0.71455646  0.96692506     0.20900
C835        C  0.06233916  0.68505353  0.97136503    -0.12700
C836        C  0.07467394  0.68242794  0.98328463    -0.11000
C837        C  0.05670618  0.71723626  0.95428694     0.01800
C838        C  0.04743324  0.71785755  0.94344690    -0.31000
C839        C  0.10719217  0.70672988  0.00280169     0.03200
C840        C  0.12039777  0.70477184  0.01240335    -0.32700
H841        H  0.11244525  0.75970468  0.99229759     0.14200
H842        H  0.09069796  0.76433344  0.97130792     0.14100
H843        H  0.04867730  0.66414548  0.96552363     0.13900
H844        H  0.07038673  0.65952706  0.98647662     0.13000
C845        C  0.59657955  0.68316116  0.33620034     0.19300
C846        C  0.56684354  0.67983626  0.33398115    -0.09800
C847        C  0.55819849  0.68418472  0.32149187    -0.10700
C848        C  0.57924931  0.69198723  0.31111134     0.20900
C849        C  0.60898534  0.69531273  0.31332876    -0.12700
C850        C  0.61762987  0.69096081  0.32581766    -0.11000
C851        C  0.56997798  0.69553591  0.29814473     0.01800
C852        C  0.56167346  0.69661407  0.28716835    -0.31000
C853        C  0.60569740  0.67918652  0.34913993     0.03200
C854        C  0.61374167  0.67707529  0.36004764    -0.32700
H855        H  0.55034149  0.67389407  0.34190480     0.14200
H856        H  0.53508567  0.68135503  0.31992440     0.14100
H857        H  0.62544887  0.70115858  0.30539630     0.13900
H858        H  0.64070455  0.69368919  0.32737525     0.13000
C859        C  0.63072150  0.87464126  0.25306443     0.19300
C860        C  0.60470115  0.86152727  0.26142408    -0.09800
C861        C  0.59347540  0.83127882  0.26659912    -0.10700
C862        C  0.60826258  0.81394115  0.26350489     0.20900
C863        C  0.63464847  0.82733529  0.25535167    -0.12700
C864        C  0.64585743  0.85755622  0.25017534    -0.11000
C865        C  0.59427582  0.78123665  0.26734346     0.01800
C866        C  0.58025025  0.75281669  0.26831580    -0.31000
C867        C  0.64118981  0.90508454  0.24713448     0.03200
C868        C  0.64896553  0.93037985  0.24221183    -0.32700
H869        H  0.59269168  0.87440049  0.26372090     0.14200
H870        H  0.57276960  0.82108862  0.27271115     0.14100
H871        H  0.64602390  0.81406271  0.25269856     0.13900
H872        H  0.66591167  0.86731456  0.24370716     0.13000
C873        C  0.72110386  0.91203072  0.36975597     0.19300
C874        C  0.69556841  0.90035987  0.37833529    -0.09800
C875        C  0.68352542  0.87031197  0.38378470    -0.10700
C876        C  0.69701849  0.85179908  0.38071875     0.20900
C877        C  0.72199676  0.86312567  0.37187122    -0.12700
C878        C  0.73404200  0.89316447  0.36642955    -0.11000
C879        C  0.68637330  0.82186957  0.38704955     0.01800
C880        C  0.67927547  0.79702053  0.39218597    -0.31000
C881        C  0.73677136  0.94471173  0.36592607     0.03200
C882        C  0.75286698  0.97299066  0.36510115    -0.32700
H883        H  0.68571769  0.91491262  0.38117000     0.14200
H884        H  0.66429505  0.86188899  0.39064523     0.14100
H885        H  0.73271438  0.84909679  0.36945836     0.13900
H886        H  0.75413931  0.90209799  0.35999942     0.13000
C887        C  0.73598356  0.04463279  0.29856963     0.19300
C888        C  0.76098174  0.03869293  0.30001777    -0.09800
C889        C  0.77005084  0.03432445  0.31240593    -0.10700
C890        C  0.75414959  0.03579752  0.32342931     0.20900
C891        C  0.72922765  0.04184492  0.32198147    -0.12700
C892        C  0.72016033  0.04621327  0.30959566    -0.11000
C893        C  0.76383619  0.03188236  0.33622457     0.01800
C894        C  0.77264163  0.03020288  0.34701487    -0.31000
C895        C  0.72613300  0.04834974  0.28577709     0.03200
C896        C  0.71747226  0.05021001  0.27498061    -0.32700
H897        H  0.77337492  0.03734575  0.29158121     0.14200
H898        H  0.78945735  0.02982765  0.31338687     0.14100
H899        H  0.71684193  0.04320566  0.33041709     0.13900
H900        H  0.70076237  0.05072351  0.30861681     0.13000
C901        C  0.38373667  0.24620652  0.70442240     0.19300
C902        C  0.39875048  0.22847164  0.70284293    -0.09800
C903        C  0.38601553  0.19847959  0.70841768    -0.10700
C904        C  0.35818638  0.18594508  0.71566986     0.20900
C905        C  0.34264931  0.20327381  0.71695117    -0.12700
C906        C  0.35541700  0.23332993  0.71136989    -0.11000
C907        C  0.34662148  0.15601962  0.72221737     0.01800
C908        C  0.33909885  0.13124488  0.72757085    -0.31000
C909        C  0.39959794  0.27890180  0.70046053     0.03200
C910        C  0.41623510  0.30710501  0.69928488    -0.32700
H911        H  0.42088612  0.23826854  0.69768301     0.14200
H912        H  0.39833318  0.18542025  0.70736611     0.14100
H913        H  0.32116371  0.19393605  0.72254636     0.13900
H914        H  0.34378906  0.24692648  0.71284608     0.13000
C915        C  0.24058966  0.02487521  0.64707374     0.19300
C916        C  0.22621236  0.99489432  0.65281406    -0.09800
C917        C  0.23495602  0.99086927  0.66532824    -0.10700
C918        C  0.25817474  0.01680278  0.67221743     0.20900
C919        C  0.27270438  0.04675931  0.66644775    -0.12700
C920        C  0.26395289  0.05078776  0.65392912    -0.11000
C921        C  0.26683739  0.01283946  0.68523490     0.01800
C922        C  0.27455409  0.01074399  0.69619846    -0.31000
C923        C  0.23069048  0.02897355  0.63432021     0.03200
C924        C  0.22047935  0.03067705  0.62382261    -0.32700
H925        H  0.20806343  0.97465401  0.64764942     0.14200
H926        H  0.22349467  0.96760223  0.66965210     0.14100
H927        H  0.29066656  0.06703707  0.67165741     0.13900
H928        H  0.27521873  0.07409468  0.64964522     0.13000
C929        C  0.27595596  0.04562551  0.80261068     0.19300
C930        C  0.25807528  0.01517975  0.80776962    -0.09800
C931        C  0.24256414  0.01054650  0.81966460    -0.10700
C932        C  0.24483114  0.03634349  0.82648877     0.20900
C933        C  0.26303480  0.06681341  0.82141188    -0.12700
C934        C  0.27853136  0.07144327  0.80952091    -0.11000
C935        C  0.22766805  0.03164061  0.83843249     0.01800
C936        C  0.21294898  0.02925481  0.84817147    -0.31000
C937        C  0.29034848  0.05011299  0.78997669     0.03200
C938        C  0.30037556  0.05237901  0.77907838    -0.32700
H939        H  0.25574553  0.99498104  0.80250495     0.14200
H940        H  0.22849703  0.98686957  0.82344275     0.14100
H941        H  0.26489567  0.08695495  0.82656161     0.13900
H942        H  0.29211798  0.09506545  0.80563325     0.13000
C943        C  0.11391616  0.84920951  0.88062283     0.19300
C944        C  0.09685096  0.86408475  0.87723107    -0.09800
C945        C  0.11221783  0.89446928  0.87199373    -0.10700
C946        C  0.14484245  0.91034254  0.87005847     0.20900
C947        C  0.16195291  0.89529914  0.87320890    -0.12700
C948        C  0.14650505  0.86474983  0.87845535    -0.11000
C949        C  0.16055565  0.94305645  0.86617740     0.01800
C950        C  0.17010165  0.97090850  0.86485672    -0.31000
C951        C  0.09770550  0.81850531  0.88668126     0.03200
C952        C  0.08133110  0.79322421  0.89179273    -0.32700
H953        H  0.07169260  0.85241578  0.87887821     0.14200
H954        H  0.09875188  0.90593142  0.86977667     0.14100
H955        H  0.18724363  0.90743561  0.87192232     0.13900
H956        H  0.16000563  0.85355460  0.88105159     0.13000
C957        C  0.20840849  0.87545710  0.75947318     0.19300
C958        C  0.22510386  0.86267035  0.76558366    -0.09800
C959        C  0.20905053  0.83226809  0.77088477    -0.10700
C960        C  0.17611765  0.81436924  0.77017356     0.20900
C961        C  0.15936116  0.82748841  0.76438567    -0.12700
C962        C  0.17543081  0.85792403  0.75907913    -0.11000
C963        C  0.16009996  0.78138941  0.77376908     0.01800
C964        C  0.14868764  0.75309648  0.77450707    -0.31000
C965        C  0.22530877  0.90583086  0.75310957     0.03200
C966        C  0.24122496  0.93089633  0.74772694    -0.32700
H967        H  0.25058885  0.87586679  0.76593851     0.14200
H968        H  0.22238856  0.82232343  0.77513795     0.14100
H969        H  0.13395991  0.81380305  0.76357988     0.13900
H970        H  0.16219488  0.86742052  0.75436694     0.13000
C971        C  0.04743433  0.67597129  0.83780608     0.19300
C972        C  0.07988987  0.68719419  0.83720809    -0.09800
C973        C  0.09490459  0.69212895  0.82518395    -0.10700
C974        C  0.07761312  0.68594543  0.81363029     0.20900
C975        C  0.04510684  0.67455106  0.81421153    -0.12700
C976        C  0.03007060  0.66961847  0.82625376    -0.11000
C977        C  0.09315806  0.69077770  0.80123409     0.01800
C978        C  0.10605305  0.69358063  0.79092279    -0.31000
C979        C  0.03238107  0.67180115  0.85028467     0.03200
C980        C  0.02194476  0.67013811  0.86107018    -0.32700
H981        H  0.09363399  0.69226556  0.84604827     0.14200
H982        H  0.11998282  0.70078977  0.82489911     0.14100
H983        H  0.03140260  0.66951837  0.80536319     0.13900
H984        H  0.00500211  0.66099599  0.82655248     0.13000
C985        C  0.92097982  0.48642719  0.19244216     0.19300
C986        C  0.90013403  0.49786586  0.19412389    -0.09800
C987        C  0.91166332  0.52971680  0.19691662    -0.10700
C988        C  0.94412548  0.55034765  0.19804281     0.20900
C989        C  0.96505111  0.53914696  0.19594497    -0.12700
C990        C  0.95350249  0.50724010  0.19316229    -0.11000
C991        C  0.95571250  0.58199322  0.20269970     0.01800
C992        C  0.96546450  0.60710194  0.20803358    -0.31000
C993        C  0.90871037  0.45291703  0.19172861     0.03200
C994        C  0.89631109  0.42482475  0.19333629    -0.32700
H995        H  0.87493579  0.48191923  0.19380275     0.14200
H996        H  0.89524141  0.53798780  0.19867998     0.14100
H997        H  0.99019057  0.55479604  0.19694877     0.13900
H998        H  0.96984110  0.49860243  0.19208836     0.13000
C999        C  0.84502213  0.66631458  0.21131981     0.19300
C1000       C  0.82943236  0.68376536  0.21108533    -0.09800
C1001       C  0.79877375  0.67038384  0.20603095    -0.10700
C1002       C  0.78354972  0.63952075  0.20111972     0.20900
C1003       C  0.79949804  0.62244806  0.20107187    -0.12700
C1004       C  0.83004776  0.63577417  0.20612271    -0.11000
C1005       C  0.75046623  0.62371140  0.19771241     0.01800
C1006       C  0.72221404  0.60666046  0.19706060    -0.31000
C1007       C  0.87573718  0.67887745  0.21732325     0.03200
C1008       C  0.90098668  0.68688151  0.22235591    -0.32700
H1009       H  0.84063742  0.70735837  0.21508963     0.14200
H1010       H  0.78661699  0.68372354  0.20632652     0.14100
H1011       H  0.78792503  0.59842403  0.19751348     0.13900
H1012       H  0.84170578  0.62193940  0.20626361     0.13000
C1013       C  0.01790693  0.77277737  0.16813481     0.19300
C1014       C  0.00719011  0.75265450  0.15732247    -0.09800
C1015       C  0.00235721  0.76344243  0.14538078    -0.10700
C1016       C  0.00813304  0.79442258  0.14417133     0.20900
C1017       C  0.01909182  0.81457265  0.15495784    -0.12700
C1018       C  0.02391837  0.80380570  0.16687724    -0.11000
C1019       C  0.00307000  0.80578587  0.13192512     0.01800
C1020       C  0.00020713  0.81711091  0.12191328    -0.31000
C1021       C  0.02161897  0.76143350  0.18063285     0.03200
C1022       C  0.02326540  0.75232475  0.19138506    -0.32700
H1023       H  0.00232703  0.72857422  0.15814816     0.14200
H1024       H  0.99398496  0.74761621  0.13713218     0.14100
H1025       H  0.02376265  0.83859694  0.15417233     0.13900
H1026       H  0.03208631  0.81960101  0.17513903     0.13000
C1027       C  0.51686869  0.97618080  0.26852056     0.19300
C1028       C  0.50350514  0.99549515  0.26711862    -0.09800
C1029       C  0.47224620  0.98445188  0.27075542    -0.10700
C1030       C  0.45412076  0.95403116  0.27585714     0.20900
C1031       C  0.46780659  0.93509180  0.27767165    -0.12700
C1032       C  0.49910191  0.94614284  0.27402351    -0.11000
C1033       C  0.42062695  0.94076581  0.27746165     0.01800
C1034       C  0.39232297  0.92782081  0.27650848    -0.31000
C1035       C  0.54772810  0.98632549  0.26327557     0.03200
C1036       C  0.57244655  0.99569167  0.25769284    -0.32700
H1037       H  0.51688794  0.01865677  0.26278113     0.14200
H1038       H  0.46185094  0.99914997  0.26910033     0.14100
H1039       H  0.45392913  0.91134765  0.28140968     0.13900
H1040       H  0.50905101  0.93087431  0.27506697     0.13000
C1041       C  0.21671105  0.85337094  0.26625400     0.19300
C1042       C  0.20184839  0.86967497  0.26169241    -0.09800
C1043       C  0.17187021  0.85315907  0.25596051    -0.10700
C1044       C  0.15662750  0.82024955  0.25469523     0.20900
C1045       C  0.17129688  0.80397802  0.25946733    -0.12700
C1046       C  0.20116676  0.82044069  0.26519413    -0.11000
C1047       C  0.12641305  0.80298705  0.24823050     0.01800
C1048       C  0.10138238  0.78641740  0.24291555    -0.31000
C1049       C  0.24913586  0.87021195  0.27058463     0.03200
C1050       C  0.27720932  0.88154494  0.27209036    -0.32700
H1051       H  0.21373931  0.89514952  0.26225465     0.14200
H1052       H  0.16087817  0.86608253  0.25229776     0.14100
H1053       H  0.15989370  0.77858614  0.25853650     0.13900
H1054       H  0.21251684  0.80753626  0.26847607     0.13000
C1055       C  0.81318290  0.74618325  0.36647756     0.19300
C1056       C  0.82275316  0.72365864  0.36750985    -0.09800
C1057       C  0.85375008  0.73180395  0.36458675    -0.10700
C1058       C  0.87533924  0.76250584  0.36057376     0.20900
C1059       C  0.86541607  0.78464867  0.35902608    -0.12700
C1060       C  0.83441904  0.77651401  0.36196659    -0.11000
C1061       C  0.90839032  0.77260391  0.35992114     0.01800
C1062       C  0.93625654  0.78325462  0.36156868    -0.31000
C1063       C  0.78275602  0.73896743  0.37132850     0.03200
C1064       C  0.75828013  0.73156673  0.37678364    -0.32700
H1065       H  0.80663690  0.70020509  0.37109491     0.14200
H1066       H  0.86122018  0.71460533  0.36601494     0.14100
H1067       H  0.88199886  0.80859172  0.35611998     0.13900
H1068       H  0.82741111  0.79421189  0.36123390     0.13000
C1069       C  0.98186873  0.74342447  0.29836482     0.19300
C1070       C  0.96992671  0.76313293  0.30172516    -0.09800
C1071       C  0.97321728  0.77451013  0.31442660    -0.10700
C1072       C  0.98852221  0.76633205  0.32386735     0.20900
C1073       C  0.00029330  0.74643457  0.32054437    -0.12700
C1074       C  0.99699520  0.73503735  0.30782456    -0.11000
C1075       C  0.99194494  0.77837658  0.33691686     0.01800
C1076       C  0.99343694  0.78876825  0.34769235    -0.31000
C1077       C  0.97938521  0.73263743  0.28514289     0.03200
C1078       C  0.97844070  0.72473799  0.27396465    -0.32700
H1079       H  0.95827118  0.76986744  0.29451311     0.14200
H1080       H  0.96393923  0.78980473  0.31687314     0.14100
H1081       H  0.01210143  0.73986513  0.32774920     0.13900
H1082       H  0.00641292  0.71988031  0.30534849     0.13000
C1083       C  0.37173247  0.17802818  0.43331597     0.19300
C1084       C  0.40363729  0.19981776  0.43540924    -0.09800
C1085       C  0.41331638  0.23150697  0.43781747    -0.10700
C1086       C  0.39116685  0.24162133  0.43815445     0.20900
C1087       C  0.35915462  0.21964953  0.43646065    -0.12700
C1088       C  0.34947056  0.18794981  0.43406072    -0.11000
C1089       C  0.40171257  0.27487739  0.43860828     0.01800
C1090       C  0.41206653  0.30275599  0.43697961    -0.31000
C1091       C  0.36217363  0.14635943  0.42916389     0.03200
C1092       C  0.35369804  0.12087192  0.42434930    -0.32700
H1093       H  0.42111948  0.19254980  0.43472532     0.14200
H1094       H  0.43818084  0.24832174  0.43892364     0.14100
H1095       H  0.34184236  0.22720979  0.43650948     0.13900
H1096       H  0.32476875  0.17141494  0.43232607     0.13000
C1097       C  0.11069332  0.85375568  0.37195871     0.19300
C1098       C  0.11601129  0.85220161  0.38525421    -0.09800
C1099       C  0.14590933  0.87138133  0.39059145    -0.10700
C1100       C  0.17081132  0.89232382  0.38267971     0.20900
C1101       C  0.16582469  0.89317151  0.36928963    -0.12700
C1102       C  0.13580651  0.87397402  0.36393795    -0.11000
C1103       C  0.20070999  0.91435485  0.38847538     0.01800
C1104       C  0.22507298  0.93398765  0.39342086    -0.31000
C1105       C  0.07874907  0.83744844  0.36715332     0.03200
C1106       C  0.05069793  0.82621347  0.36578428    -0.32700
H1107       H  0.09672914  0.83698687  0.39159606     0.14200
H1108       H  0.14935809  0.87058531  0.40094885     0.14100
H1109       H  0.18486480  0.90936771  0.36306868     0.13900
H1110       H  0.13196943  0.87570772  0.35368183     0.13000
C1111       C  0.33746469  0.94786844  0.31307013     0.19300
C1112       C  0.36340357  0.97729501  0.31624720    -0.09800
C1113       C  0.36589639  0.99023539  0.32862763    -0.10700
C1114       C  0.34248666  0.97383748  0.33793938     0.20900
C1115       C  0.31651385  0.94446154  0.33474426    -0.12700
C1116       C  0.31401945  0.93153257  0.32237096    -0.11000
C1117       C  0.34502787  0.98695859  0.35076323     0.01800
C1118       C  0.34594893  0.99686234  0.36161075    -0.31000
C1119       C  0.33529859  0.93410282  0.30041742     0.03200
C1120       C  0.33435282  0.92228527  0.28999165    -0.32700
H1121       H  0.38177159  0.99015188  0.30918133     0.14200
H1122       H  0.38609983  0.01293800  0.33094736     0.14100
H1123       H  0.29823674  0.93149787  0.34183345     0.13900
H1124       H  0.29390524  0.90874006  0.32008284     0.13000
C1125       C  0.60122777  0.82047719  0.53009823     0.19300
C1126       C  0.58075237  0.83227854  0.52800330    -0.09800
C1127       C  0.59025397  0.86367034  0.53107697    -0.10700
C1128       C  0.62027997  0.88346007  0.53628812     0.20900
C1129       C  0.64105683  0.87190448  0.53801066    -0.12700
C1130       C  0.63156434  0.84055283  0.53494316    -0.11000
C1131       C  0.62903571  0.91469735  0.54085118     0.01800
C1132       C  0.63718467  0.93996175  0.54585558    -0.31000
C1133       C  0.58982687  0.78708023  0.52895426     0.03200
C1134       C  0.57873544  0.75896310  0.53022894    -0.32700
H1135       H  0.55706851  0.81692232  0.52445629     0.14200
H1136       H  0.57385392  0.87218209  0.52978879     0.14100
H1137       H  0.66423111  0.88683091  0.54212822     0.13900
H1138       H  0.64746662  0.83166284  0.53680829     0.13000
C1139       C  0.67948191  0.10469819  0.50378907     0.19300
C1140       C  0.69993783  0.11188543  0.49323822    -0.09800
C1141       C  0.69423353  0.12314295  0.48161615    -0.10700
C1142       C  0.66801267  0.12726286  0.48045139     0.20900
C1143       C  0.64751236  0.11997901  0.49099086    -0.12700
C1144       C  0.65321357  0.10873236  0.50260455    -0.11000
C1145       C  0.66276905  0.13987186  0.46860636     0.01800
C1146       C  0.65991110  0.15190974  0.45882140    -0.31000
C1147       C  0.68543676  0.09362690  0.51590716     0.03200
C1148       C  0.68846091  0.08472491  0.52649348    -0.32700
H1149       H  0.72036651  0.10896923  0.49401661     0.14200
H1150       H  0.71037131  0.12884052  0.47357790     0.14100
H1151       H  0.62725498  0.12319700  0.49026457     0.13900
H1152       H  0.63724319  0.10335472  0.51068532     0.13000
C1153       C  0.54107626  0.10106722  0.43566341     0.19300
C1154       C  0.52350133  0.06806266  0.43486397    -0.09800
C1155       C  0.49333910  0.05319916  0.42922105    -0.10700
C1156       C  0.48069525  0.07127717  0.42429241     0.20900
C1157       C  0.49812970  0.10417894  0.42529594    -0.12700
C1158       C  0.52811274  0.11896289  0.43092869    -0.11000
C1159       C  0.45015989  0.05660011  0.41802666     0.01800
C1160       C  0.42487398  0.04686082  0.41275605    -0.31000
C1161       C  0.57335555  0.11726044  0.44019759     0.03200
C1162       C  0.60116718  0.13525158  0.44186689    -0.32700
H1163       H  0.53330478  0.05390842  0.43835431     0.14200
H1164       H  0.48012405  0.02772833  0.42853001     0.14100
H1165       H  0.48871714  0.11847035  0.42154760     0.13900
H1166       H  0.54150486  0.14447425  0.43134021     0.13000
C1167       C  0.45163510  0.95682422  0.53342747     0.19300
C1168       C  0.46668413  0.93998253  0.53699587    -0.09800
C1169       C  0.49655871  0.95546238  0.54276595    -0.10700
C1170       C  0.51178927  0.98800024  0.54508049     0.20900
C1171       C  0.49708177  0.00505394  0.54127869    -0.12700
C1172       C  0.46707556  0.98950847  0.53550001    -0.11000
C1173       C  0.54205974  0.00333938  0.55162063     0.01800
C1174       C  0.56719323  0.01379520  0.55712857    -0.31000
C1175       C  0.41937506  0.93972061  0.52882523     0.03200
C1176       C  0.39170276  0.92142802  0.52690174    -0.32700
H1177       H  0.45497983  0.91469346  0.53559852     0.14200
H1178       H  0.50755347  0.94192592  0.54563448     0.14100
H1179       H  0.50853154  0.03020978  0.54298717     0.13900
H1180       H  0.45567004  0.00283122  0.53292541     0.13000
C1181       C  0.31147738  0.95926883  0.46757738     0.19300
C1182       C  0.28788923  0.93088218  0.47288880    -0.09800
C1183       C  0.29342346  0.91922622  0.48442892    -0.10700
C1184       C  0.32260469  0.93581362  0.49076610     0.20900
C1185       C  0.34606910  0.96443337  0.48555853    -0.12700
C1186       C  0.34052372  0.97610755  0.47400931    -0.11000
C1187       C  0.32862714  0.92266738  0.50228133     0.01800
C1188       C  0.33196967  0.90924371  0.51149540    -0.31000
C1189       C  0.30657016  0.97013504  0.45518325     0.03200
C1190       C  0.30396679  0.97844025  0.44439911    -0.32700
H1191       H  0.26541787  0.91749187  0.46799820     0.14200
H1192       H  0.27510523  0.89701787  0.48830409     0.14100
H1193       H  0.36877076  0.97745767  0.49030675     0.13900
H1194       H  0.35906196  0.99797349  0.46998097     0.13000
C1195       C  0.18116905  0.30983572  0.60071862     0.19300
C1196       C  0.16929313  0.33050489  0.59975596    -0.09800
C1197       C  0.13828626  0.32060419  0.60340432    -0.10700
C1198       C  0.11890183  0.28996446  0.60807453     0.20900
C1199       C  0.13108094  0.26959144  0.60945560    -0.12700
C1200       C  0.16215837  0.27951422  0.60579855    -0.11000
C1201       C  0.08564874  0.27823179  0.60964107     0.01800
C1202       C  0.05758920  0.26740482  0.60855589    -0.31000
C1203       C  0.21183581  0.31911012  0.59548156     0.03200
C1204       C  0.23659077  0.32822466  0.58996480    -0.32700
H1205       H  0.18365034  0.35391169  0.59575129     0.14200
H1206       H  0.12905138  0.33641184  0.60208607     0.14100
H1207       H  0.11620735  0.24567548  0.61285949     0.13900
H1208       H  0.17096708  0.26322346  0.60650566     0.13000
C1209       C  0.82078608  0.16015874  0.59045849     0.19300
C1210       C  0.83439569  0.14491258  0.59710833    -0.09800
C1211       C  0.86464503  0.16238576  0.60243295    -0.10700
C1212       C  0.88155155  0.19529199  0.60120222     0.20900
C1213       C  0.86754314  0.21064783  0.59492948    -0.12700
C1214       C  0.83724234  0.19314976  0.58960031    -0.11000
C1215       C  0.91452718  0.21251882  0.60469465     0.01800
C1216       C  0.94283912  0.22457918  0.60535093    -0.31000
C1217       C  0.79084406  0.14171104  0.58392813     0.03200
C1218       C  0.76633095  0.12445091  0.57840089    -0.32700
H1219       H  0.82202466  0.11943733  0.59782457     0.14200
H1220       H  0.87530990  0.15013225  0.60707020     0.14100
H1221       H  0.88047945  0.23601140  0.59372743     0.13900
H1222       H  0.82707978  0.20526152  0.58446962     0.13000
C1223       C  0.53750895  0.11110963  0.69404587     0.19300
C1224       C  0.52572643  0.13185867  0.69509036    -0.09800
C1225       C  0.49458762  0.12071585  0.69897244    -0.10700
C1226       C  0.47496460  0.08871969  0.70185401     0.20900
C1227       C  0.48640651  0.06776713  0.70039263    -0.12700
C1228       C  0.51758176  0.07892595  0.69651974    -0.11000
C1229       C  0.44418612  0.07788517  0.70737685     0.01800
C1230       C  0.41956922  0.06845411  0.71307250    -0.31000
C1231       C  0.57087248  0.12360500  0.69225847     0.03200
C1232       C  0.59919168  0.13630930  0.69314286    -0.32700
H1233       H  0.54098187  0.15686313  0.69341629     0.14200
H1234       H  0.48617786  0.13722155  0.70016644     0.14100
H1235       H  0.47158973  0.04301531  0.70269292     0.13900
H1236       H  0.52647262  0.06268923  0.69595814     0.13000
C1237       C  0.65448557  0.11790247  0.65643904     0.19300
C1238       C  0.67945736  0.13125368  0.64757072    -0.09800
C1239       C  0.67663037  0.11697607  0.63546525    -0.10700
C1240       C  0.64882714  0.08923986  0.63212192     0.20900
C1241       C  0.62383678  0.07599121  0.64097042    -0.12700
C1242       C  0.62665947  0.09026168  0.65306651    -0.11000
C1243       C  0.64596566  0.07454777  0.61961902     0.01800
C1244       C  0.64475561  0.06353480  0.60897389    -0.31000
C1245       C  0.65716211  0.13248674  0.66894999     0.03200
C1246       C  0.65792609  0.14395340  0.67944479    -0.32700
H1247       H  0.70106246  0.15264171  0.65000809     0.14200
H1248       H  0.69613083  0.12756062  0.62871559     0.14100
H1249       H  0.60219745  0.05465243  0.63852591     0.13900
H1250       H  0.60712097  0.07972188  0.65979683     0.13000
C1251       C  0.74233363  0.91612759  0.10833813     0.19300
C1252       C  0.70996706  0.89448138  0.10826885    -0.09800
C1253       C  0.69908089  0.86266817  0.10558062    -0.10700
C1254       C  0.72051185  0.85238563  0.10292688     0.20900
C1255       C  0.75289545  0.87381278  0.10350882    -0.12700
C1256       C  0.76377374  0.90559704  0.10620885    -0.11000
C1257       C  0.70927845  0.82089656  0.09816253     0.01800
C1258       C  0.69925397  0.79582197  0.09277221    -0.31000
C1259       C  0.75350660  0.94945328  0.10873605     0.03200
C1260       C  0.76440122  0.97728174  0.10684513    -0.32700
H1261       H  0.69315892  0.90240367  0.10971336     0.14200
H1262       H  0.67398134  0.84638181  0.10502005     0.14100
H1263       H  0.76968219  0.86622857  0.10133422     0.13900
H1264       H  0.78884068  0.92218644  0.10604875     0.13000
C1265       C  0.88031829  0.76612166  0.09977850     0.19300
C1266       C  0.86722325  0.73716524  0.09321774    -0.09800
C1267       C  0.83667310  0.72345231  0.08802815    -0.10700
C1268       C  0.81900843  0.73865192  0.08930807     0.20900
C1269       C  0.83188761  0.76726579  0.09609475    -0.12700
C1270       C  0.86236269  0.78093707  0.10128036    -0.11000
C1271       C  0.78823991  0.72576526  0.08330174     0.01800
C1272       C  0.76275412  0.71711628  0.07835950    -0.31000
C1273       C  0.91318392  0.78255693  0.10359250     0.03200
C1274       C  0.94126040  0.80000688  0.10486795    -0.32700
H1275       H  0.88092890  0.72563142  0.09179521     0.14200
H1276       H  0.82712412  0.70139570  0.08278372     0.14100
H1277       H  0.81862162  0.77938067  0.09713611     0.13900
H1278       H  0.87226039  0.80352712  0.10613577     0.13000
C1279       C  0.65447247  0.60911588  0.15840348     0.19300
C1280       C  0.62570273  0.59307775  0.15172260    -0.09800
C1281       C  0.62180471  0.60434828  0.13973456    -0.10700
C1282       C  0.64663077  0.63179379  0.13431346     0.20900
C1283       C  0.67531457  0.64796766  0.14104581    -0.12700
C1284       C  0.67921353  0.63669599  0.15303121    -0.11000
C1285       C  0.64313382  0.64274002  0.12167190     0.01800
C1286       C  0.64149683  0.65159871  0.11085798    -0.31000
C1287       C  0.65865217  0.59710526  0.17066710     0.03200
C1288       C  0.66158291  0.58652860  0.18088273    -0.32700
H1289       H  0.60635226  0.57173757  0.15573643     0.14200
H1290       H  0.59954584  0.59150887  0.13464510     0.14100
H1291       H  0.69476880  0.66913584  0.13697413     0.13900
H1292       H  0.70157654  0.64936167  0.15805904     0.13000
C1293       C  0.84651612  0.64190796  0.93609808     0.19300
C1294       C  0.83003641  0.61776190  0.94514710    -0.09800
C1295       C  0.79889630  0.60881249  0.94836280    -0.10700
C1296       C  0.78415763  0.62403802  0.94257300     0.20900
C1297       C  0.80104607  0.64881553  0.93385265    -0.12700
C1298       C  0.83206774  0.65772721  0.93064609    -0.11000
C1299       C  0.75078430  0.61181282  0.94412279     0.01800
C1300       C  0.72256273  0.59980723  0.94304998    -0.31000
C1301       C  0.87731630  0.64932975  0.93159742     0.03200
C1302       C  0.90207956  0.65708906  0.92630023    -0.32700
H1303       H  0.84086275  0.60523123  0.94938817     0.14200
H1304       H  0.78598435  0.58932152  0.95497634     0.14100
H1305       H  0.78984203  0.66047416  0.92915159     0.13900
H1306       H  0.84445233  0.67630021  0.92358610     0.13000
C1307       C  0.66932029  0.62286340  0.97917664     0.19300
C1308       C  0.69892364  0.63956085  0.98517216    -0.09800
C1309       C  0.70196259  0.65313331  0.99744260    -0.10700
C1310       C  0.67543481  0.65015759  0.00383912     0.20900
C1311       C  0.64584754  0.63372520  0.99779092    -0.12700
C1312       C  0.64280544  0.62013836  0.98550791    -0.11000
C1313       C  0.67845432  0.66311383  0.01673376     0.01800
C1314       C  0.68036797  0.67281575  0.02769607    -0.31000
C1315       C  0.66624588  0.60808140  0.96668572     0.03200
C1316       C  0.66498555  0.59574366  0.95635645    -0.32700
H1317       H  0.71962032  0.64184626  0.98041149     0.14200
H1318       H  0.72495196  0.66568039  0.00199361     0.14100
H1319       H  0.62510953  0.63115523  0.00261873     0.13900
H1320       H  0.61977347  0.60729121  0.98100890     0.13000
C1321       C  0.20977578  0.43742151  0.02873117     0.19300
C1322       C  0.19916433  0.45906630  0.02734474    -0.09800
C1323       C  0.16796577  0.45012886  0.03029901    -0.10700
C1324       C  0.14724912  0.41949927  0.03466104     0.20900
C1325       C  0.15754027  0.39752742  0.03556236    -0.12700
C1326       C  0.18872292  0.40646911  0.03262635    -0.11000
C1327       C  0.11655946  0.41133505  0.03947687     0.01800
C1328       C  0.09187871  0.40320180  0.04487324    -0.31000
C1329       C  0.24294232  0.44816497  0.02795627     0.03200
C1330       C  0.27092631  0.45932466  0.02942012    -0.32700
H1331       H  0.21533657  0.48319734  0.02452902     0.14200
H1332       H  0.16037813  0.46740394  0.02967541     0.14100
H1333       H  0.14181512  0.37385878  0.03903866     0.13900
H1334       H  0.19673289  0.38965714  0.03392843     0.13000
C1335       C  0.50719474  0.57927571  0.04763322     0.19300
C1336       C  0.49056731  0.59348508  0.04276678    -0.09800
C1337       C  0.46082765  0.57506436  0.03712458    -0.10700
C1338       C  0.44747394  0.54226356  0.03625602     0.20900
C1339       C  0.46447642  0.52813314  0.04078223    -0.12700
C1340       C  0.49427375  0.54658462  0.04642401    -0.11000
C1341       C  0.41485060  0.52309902  0.03250406     0.01800
C1342       C  0.38645609  0.50916321  0.03184775    -0.31000
C1343       C  0.53690761  0.59820110  0.05423670     0.03200
C1344       C  0.56153835  0.61539804  0.05968198    -0.32700
H1345       H  0.50023351  0.61871599  0.04363885     0.14200
H1346       H  0.44777688  0.58626999  0.03386859     0.14100
H1347       H  0.45425700  0.50277100  0.04036802     0.13900
H1348       H  0.50683964  0.53528277  0.05014149     0.13000
C1349       C  0.24165303  0.14763997  0.86089150     0.19300
C1350       C  0.22288679  0.16172363  0.86166945    -0.09800
C1351       C  0.23638494  0.19363689  0.86491951    -0.10700
C1352       C  0.26875031  0.21168450  0.86742122     0.20900
C1353       C  0.28770368  0.19789458  0.86617799    -0.12700
C1354       C  0.27419522  0.16596027  0.86293324    -0.11000
C1355       C  0.28191952  0.24322263  0.87252615     0.01800
C1356       C  0.29277736  0.26823040  0.87808009    -0.31000
C1357       C  0.22695819  0.11385696  0.85968214     0.03200
C1358       C  0.21304267  0.08550517  0.86068271    -0.32700
H1359       H  0.19764265  0.14773963  0.86028676     0.14200
H1360       H  0.22142213  0.20390300  0.86596441     0.14100
H1361       H  0.31271102  0.21150286  0.86820317     0.13900
H1362       H  0.28890724  0.15529304  0.86253335     0.13000
C1363       C  0.54716482  0.52734838  0.93271230     0.19300
C1364       C  0.52363117  0.50322107  0.94022261    -0.09800
C1365       C  0.49336199  0.48421883  0.93504941    -0.10700
C1366       C  0.48643017  0.48910385  0.92231394     0.20900
C1367       C  0.50972356  0.51379690  0.91495590    -0.12700
C1368       C  0.53992431  0.53278943  0.92012561    -0.11000
C1369       C  0.45611588  0.46780712  0.91654506     0.01800
C1370       C  0.43119254  0.44910706  0.91163760    -0.31000
C1371       C  0.57954443  0.54391259  0.93710993     0.03200
C1372       C  0.60763974  0.55523813  0.93854146    -0.32700
H1373       H  0.52893885  0.49842764  0.94988813     0.14200
H1374       H  0.47563923  0.46516371  0.94084731     0.14100
H1375       H  0.50480815  0.51781538  0.90509816     0.13900
H1376       H  0.55795704  0.55104404  0.91412971     0.13000
C1377       C  0.31520261  0.41379755  0.96690938     0.19300
C1378       C  0.33745881  0.44567704  0.96888969    -0.09800
C1379       C  0.34123146  0.45928543  0.98119171    -0.10700
C1380       C  0.32281017  0.44113882  0.99163183     0.20900
C1381       C  0.30059181  0.40921378  0.98967347    -0.12700
C1382       C  0.29681853  0.39558735  0.97735741    -0.11000
C1383       C  0.32630755  0.45538341  0.00426364     0.01800
C1384       C  0.32813495  0.46693854  0.01482898    -0.31000
C1385       C  0.31139447  0.40004118  0.95414961     0.03200
C1386       C  0.30969175  0.39015925  0.94324445    -0.32700
H1387       H  0.35183777  0.46003369  0.96091485     0.14200
H1388       H  0.35843068  0.48398459  0.98254754     0.14100
H1389       H  0.28613132  0.39491556  0.99764320     0.13900
H1390       H  0.27953668  0.37092122  0.97597944     0.13000
C1391       C  0.07522759  0.57532700  0.77627515     0.19300
C1392       C  0.04285318  0.55500003  0.77450484    -0.09800
C1393       C  0.03129952  0.52309516  0.77168398    -0.10700
C1394       C  0.05204916  0.51133899  0.77058915     0.20900
C1395       C  0.08428537  0.53145513  0.77276796    -0.12700
C1396       C  0.09582521  0.56332550  0.77559914    -0.11000
C1397       C  0.04067600  0.47961744  0.76599049     0.01800
C1398       C  0.03068716  0.45424258  0.76082402    -0.31000
C1399       C  0.08784742  0.60892669  0.77724871     0.03200
C1400       C  0.10053668  0.63723295  0.77619546    -0.32700
H1401       H  0.02671151  0.56401940  0.77483302     0.14200
H1402       H  0.00635852  0.50787002  0.76989874     0.14100
H1403       H  0.10061822  0.52277501  0.77182610     0.13900
H1404       H  0.12094082  0.57884849  0.77677867     0.13000
C1405       C  0.77475878  0.20997752  0.70390591     0.19300
C1406       C  0.78625104  0.19325690  0.71092744    -0.09800
C1407       C  0.81611655  0.20924035  0.71676072    -0.10700
C1408       C  0.83468844  0.24210068  0.71566565     0.20900
C1409       C  0.82343392  0.25871361  0.70842864    -0.12700
C1410       C  0.79361494  0.24274979  0.70260102    -0.11000
C1411       C  0.86476152  0.25905086  0.72226918     0.01800
C1412       C  0.88985141  0.27506165  0.72763670    -0.31000
C1413       C  0.74241182  0.19431701  0.69945863     0.03200
C1414       C  0.71440339  0.18333484  0.69786279    -0.32700
H1415       H  0.77178014  0.16800554  0.71220724     0.14200
H1416       H  0.82441844  0.19607230  0.72234571     0.14100
H1417       H  0.83743585  0.28410869  0.70752183     0.13900
H1418       H  0.78490084  0.25608695  0.69739737     0.13000
C1419       C  0.00421495  0.28389049  0.64699234     0.19300
C1420       C  0.02341631  0.31630863  0.64927823    -0.09800
C1421       C  0.02581178  0.32859474  0.66178591    -0.10700
C1422       C  0.00905498  0.30856784  0.67211555     0.20900
C1423       C  0.98988495  0.27615002  0.66982583    -0.12700
C1424       C  0.98748684  0.26387064  0.65732327    -0.11000
C1425       C  0.01129825  0.32113820  0.68503299     0.01800
C1426       C  0.01213465  0.33053815  0.69597182    -0.31000
C1427       C  0.00188767  0.27120210  0.63409856     0.03200
C1428       C  0.00066885  0.26100501  0.62328682    -0.32700
H1429       H  0.03652762  0.33206594  0.64140165     0.14200
H1430       H  0.04070606  0.35368905  0.66339528     0.14100
H1431       H  0.97678361  0.26037721  0.67770028     0.13900
H1432       H  0.97260011  0.23877253  0.65571752     0.13000
C1433       C  0.97787268  0.29077020  0.80227332     0.19300
C1434       C  0.00683315  0.30785262  0.80875052    -0.09800
C1435       C  0.01171559  0.29731734  0.82073482    -0.10700
C1436       C  0.98767959  0.26960892  0.82632475     0.20900
C1437       C  0.95866678  0.25269676  0.81989526    -0.12700
C1438       C  0.95379376  0.26321328  0.80792405    -0.11000
C1439       C  0.99273344  0.25791354  0.83846471     0.01800
C1440       C  0.99503359  0.24597114  0.84838827    -0.31000
C1441       C  0.97327720  0.30090187  0.78965615     0.03200
C1442       C  0.97074792  0.30915695  0.77885327    -0.32700
H1443       H  0.02571341  0.32911364  0.80447989     0.14200
H1444       H  0.03428544  0.31059905  0.82557102     0.14100
H1445       H  0.93990862  0.23121417  0.82408127     0.13900
H1446       H  0.93135365  0.24968407  0.80301881     0.13000
C1447       C  0.17472373  0.32572914  0.88091138     0.19300
C1448       C  0.16255548  0.29643658  0.87472848    -0.09800
C1449       C  0.13213862  0.28157244  0.86949177    -0.10700
C1450       C  0.11363110  0.29591305  0.87035248     0.20900
C1451       C  0.12600752  0.32551736  0.87630498    -0.12700
C1452       C  0.15649922  0.34042220  0.88154979    -0.11000
C1453       C  0.08092386  0.27848868  0.86654066     0.01800
C1454       C  0.05300949  0.26060737  0.86528878    -0.31000
C1455       C  0.20530557  0.33973140  0.88703716     0.03200
C1456       C  0.23061258  0.34867034  0.89212351    -0.32700
H1457       H  0.17632120  0.28473798  0.87421995     0.14200
H1458       H  0.12272058  0.25848622  0.86511460     0.14100
H1459       H  0.11178545  0.33664381  0.87722271     0.13900
H1460       H  0.16555320  0.36298570  0.88634867     0.13000
C1461       C  0.14684656  0.38956234  0.75779920     0.19300
C1462       C  0.15753326  0.41333270  0.76725241    -0.09800
C1463       C  0.18820637  0.42665564  0.77221772    -0.10700
C1464       C  0.20852766  0.41628984  0.76782048     0.20900
C1465       C  0.19758192  0.39194700  0.75860443    -0.12700
C1466       C  0.16687139  0.37860702  0.75363318    -0.11000
C1467       C  0.24150704  0.43332034  0.77146374     0.01800
C1468       C  0.26958946  0.45106272  0.77252936    -0.31000
C1469       C  0.11609988  0.37788228  0.75191239     0.03200
C1470       C  0.09082804  0.37035152  0.74699444    -0.32700
H1471       H  0.14243923  0.42219044  0.77052908     0.14200
H1472       H  0.19640373  0.44575965  0.77916426     0.14100
H1473       H  0.21311175  0.38399437  0.75494250     0.13900
H1474       H  0.15906333  0.36038551  0.74629381     0.13000
C1475       C  0.34580392  0.42912367  0.83666680     0.19300
C1476       C  0.37146585  0.45276095  0.82983416    -0.09800
C1477       C  0.36693555  0.46271279  0.81764589    -0.10700
C1478       C  0.33669767  0.44913952  0.81217307     0.20900
C1479       C  0.31108153  0.42530361  0.81895296    -0.12700
C1480       C  0.31561203  0.41534974  0.83113852    -0.11000
C1481       C  0.33198470  0.46018760  0.79976950     0.01800
C1482       C  0.32914295  0.47067817  0.78951725    -0.31000
C1483       C  0.35014505  0.41963708  0.84948596     0.03200
C1484       C  0.35220403  0.41168300  0.86042040    -0.32700
H1485       H  0.39491751  0.46370827  0.83397721     0.14200
H1486       H  0.38696434  0.48118310  0.81254427     0.14100
H1487       H  0.28757516  0.41460903  0.81487689     0.13900
H1488       H  0.29552683  0.39713069  0.83630367     0.13000
C1489       C  0.52075896  0.48399660  0.69383381     0.19300
C1490       C  0.51008793  0.50176803  0.70049078    -0.09800
C1491       C  0.53073715  0.53360180  0.70318444    -0.10700
C1492       C  0.56224633  0.54792478  0.69925978     0.20900
C1493       C  0.57269901  0.53048481  0.69219317    -0.12700
C1494       C  0.55199724  0.49857113  0.68949289    -0.11000
C1495       C  0.58412324  0.57948284  0.70358829     0.01800
C1496       C  0.60055332  0.60465875  0.70874462    -0.31000
C1497       C  0.50093173  0.45022780  0.69309312     0.03200
C1498       C  0.48562824  0.42208057  0.69468756    -0.32700
H1499       H  0.48615520  0.49070220  0.70407019     0.14200
H1500       H  0.52242768  0.54673176  0.70875264     0.14100
H1501       H  0.59705968  0.54120544  0.68919747     0.13900
H1502       H  0.56066546  0.48499326  0.68450028     0.13000
C1503       C  0.50800959  0.60460064  0.76546063     0.19300
C1504       C  0.49174441  0.61532323  0.77317610    -0.09800
C1505       C  0.46078039  0.59435630  0.77713603    -0.10700
C1506       C  0.44593787  0.56252326  0.77344094     0.20900
C1507       C  0.46255855  0.55172955  0.76603174    -0.12700
C1508       C  0.49341536  0.57263058  0.76207834    -0.11000
C1509       C  0.41269934  0.54180382  0.77575811     0.01800
C1510       C  0.38436319  0.52532387  0.77537185    -0.31000
C1511       C  0.53887500  0.62628141  0.76033245     0.03200
C1512       C  0.56392526  0.64206576  0.75497644    -0.32700
H1513       H  0.50264537  0.63998146  0.77582553     0.14200
H1514       H  0.44810249  0.60316293  0.78270231     0.14100
H1515       H  0.45129232  0.52734484  0.76293375     0.13900
H1516       H  0.50559455  0.56401051  0.75607299     0.13000
C1517       C  0.89582840  0.74482238  0.86943781     0.19300
C1518       C  0.86398108  0.72207452  0.86780122    -0.09800
C1519       C  0.84190413  0.73126880  0.86467574    -0.10700
C1520       C  0.85153167  0.76327153  0.86313658     0.20900
C1521       C  0.88352062  0.78590579  0.86436810    -0.12700
C1522       C  0.90557433  0.77672290  0.86750073    -0.11000
C1523       C  0.82850123  0.77330746  0.86193484     0.01800
C1524       C  0.81086377  0.78368327  0.86304700    -0.31000
C1525       C  0.91784144  0.73570930  0.87424700     0.03200
C1526       C  0.93469598  0.72751354  0.87946407    -0.32700
H1527       H  0.85605729  0.69735420  0.86938384     0.14200
H1528       H  0.81722513  0.71354638  0.86393694     0.14100
H1529       H  0.89125084  0.81074837  0.86339143     0.13900
H1530       H  0.93003103  0.79457971  0.86885021     0.13000
C1531       C  0.72485798  0.74254319  0.79891139     0.19300
C1532       C  0.70434389  0.74760040  0.80667068    -0.09800
C1533       C  0.71328082  0.75983304  0.81925119    -0.10700
C1534       C  0.74284751  0.76716300  0.82418651     0.20900
C1535       C  0.76328130  0.76190089  0.81646384    -0.12700
C1536       C  0.75434684  0.74967414  0.80388027    -0.11000
C1537       C  0.75226611  0.78006471  0.83712886     0.01800
C1538       C  0.76083177  0.79049454  0.84795952    -0.31000
C1539       C  0.71594087  0.73087903  0.78577211     0.03200
C1540       C  0.70823817  0.72227045  0.77467281    -0.32700
H1541       H  0.68151007  0.74228237  0.80296345     0.14200
H1542       H  0.69721378  0.76370309  0.82509651     0.14100
H1543       H  0.78618618  0.76738700  0.82014836     0.13900
H1544       H  0.77049010  0.74598092  0.79800763     0.13000
C1545       C  0.45967512  0.94832655  0.77506383     0.19300
C1546       C  0.42788111  0.93169515  0.77867194    -0.09800
C1547       C  0.40808977  0.94381932  0.77571715    -0.10700
C1548       C  0.42002983  0.97258886  0.76912708     0.20900
C1549       C  0.45201086  0.98962089  0.76588326    -0.12700
C1550       C  0.47175466  0.97752482  0.76883131    -0.11000
C1551       C  0.39932308  0.98357802  0.76467476     0.01800
C1552       C  0.38387875  0.99354293  0.75957126    -0.31000
C1553       C  0.47883788  0.93376479  0.77612645     0.03200
C1554       C  0.49367339  0.92039915  0.77481136    -0.32700
H1555       H  0.41815256  0.90886220  0.78331196     0.14200
H1556       H  0.38334802  0.93030417  0.77817297     0.14100
H1557       H  0.46145088  0.01173960  0.76067983     0.13900
H1558       H  0.49614529  0.99036046  0.76580376     0.13000
C1559       C  0.63144468  0.82335862  0.75334149     0.19300
C1560       C  0.63328754  0.84904662  0.74656196    -0.09800
C1561       C  0.61944652  0.86569353  0.75167400    -0.10700
C1562       C  0.60369421  0.85681824  0.76361571     0.20900
C1563       C  0.60259235  0.83167053  0.77056579    -0.12700
C1564       C  0.61646347  0.81502946  0.76545611    -0.11000
C1565       C  0.58537713  0.87082799  0.76779897     0.01800
C1566       C  0.56664263  0.87969301  0.76933407    -0.31000
C1567       C  0.64286043  0.80419766  0.74749238     0.03200
C1568       C  0.65015107  0.78639073  0.74255966    -0.32700
H1569       H  0.64457678  0.85560543  0.73715097     0.14200
H1570       H  0.62005278  0.88475392  0.74609818     0.14100
H1571       H  0.59008248  0.82423088  0.77970207     0.13900
H1572       H  0.61466544  0.79508759  0.77075910     0.13000
C1573       C  0.73478742  0.94926755  0.60182891     0.19300
C1574       C  0.75961623  0.96040765  0.61081485    -0.09800
C1575       C  0.77210791  0.94129187  0.61450539    -0.10700
C1576       C  0.75975935  0.91094442  0.60925447     0.20900
C1577       C  0.73456742  0.89968685  0.60047291    -0.12700
C1578       C  0.72213187  0.91873707  0.59679018    -0.11000
C1579       C  0.77487709  0.89259130  0.61162706     0.01800
C1580       C  0.78885164  0.87812907  0.61140019    -0.31000
C1581       C  0.72313725  0.96932053  0.59712970     0.03200
C1582       C  0.71225663  0.98379968  0.59184636    -0.32700
H1583       H  0.76976063  0.98403458  0.61471843     0.14200
H1584       H  0.79190110  0.95047404  0.62115272     0.14100
H1585       H  0.72512264  0.87650450  0.59618186     0.13900
H1586       H  0.70310562  0.90991376  0.58976687     0.13000
C1587       C  0.72159325  0.77215787  0.66913664     0.19300
C1588       C  0.70620325  0.77521651  0.65820008    -0.09800
C1589       C  0.72252292  0.78676691  0.64647532    -0.10700
C1590       C  0.75435845  0.79530614  0.64557997     0.20900
C1591       C  0.76969553  0.79220679  0.65651445    -0.12700
C1592       C  0.75340612  0.78068407  0.66822113    -0.11000
C1593       C  0.77158596  0.80818287  0.63362516     0.01800
C1594       C  0.78672434  0.82061442  0.62394374    -0.31000
C1595       C  0.70506536  0.76037068  0.68131689     0.03200
C1596       C  0.69325100  0.75069878  0.69186326    -0.32700
H1597       H  0.68165204  0.76877530  0.65874226     0.14200
H1598       H  0.71037942  0.78919375  0.63814235     0.14100
H1599       H  0.79431327  0.79886311  0.65601459     0.13900
H1600       H  0.76565556  0.77850777  0.67657420     0.13000
C1601       C  0.93799311  0.45584546  0.70358668     0.19300
C1602       C  0.95932146  0.48836237  0.70384862    -0.09800
C1603       C  0.94962218  0.50969558  0.70014023    -0.10700
C1604       C  0.91853211  0.49868425  0.69611155     0.20900
C1605       C  0.89750312  0.46612330  0.69539107    -0.12700
C1606       C  0.90720829  0.44476602  0.69910853    -0.11000
C1607       C  0.90710911  0.52053733  0.69457064     0.01800
C1608       C  0.89603973  0.53759152  0.69562330    -0.31000
C1609       C  0.94708436  0.43430263  0.70895622     0.03200
C1610       C  0.95574396  0.41824668  0.71453644    -0.32700
H1611       H  0.98311665  0.49726338  0.70737567     0.14200
H1612       H  0.96598920  0.53477105  0.70093735     0.14100
H1613       H  0.87327438  0.45728103  0.69248319     0.13900
H1614       H  0.89041574  0.41971771  0.69893995     0.13000
C1615       C  0.78229433  0.66183033  0.71304540     0.19300
C1616       C  0.77334660  0.64343256  0.70171133    -0.09800
C1617       C  0.79212310  0.63163857  0.69683587    -0.10700
C1618       C  0.82007277  0.63825172  0.70322022     0.20900
C1619       C  0.82930608  0.65720393  0.71438659    -0.12700
C1620       C  0.81055049  0.66895440  0.71925975    -0.11000
C1621       C  0.83738000  0.62279346  0.69935702     0.01800
C1622       C  0.85008240  0.60712062  0.69844210    -0.31000
C1623       C  0.76191933  0.67219568  0.71863066     0.03200
C1624       C  0.74423715  0.67981981  0.72347048    -0.32700
H1625       H  0.75151893  0.63759848  0.69682057     0.14200
H1626       H  0.78439199  0.61665099  0.68831712     0.14100
H1627       H  0.85055544  0.66213636  0.71955292     0.13900
H1628       H  0.81773579  0.68299561  0.72804861     0.13000
C1629       C  0.87681016  0.15319277  0.86110717     0.19300
C1630       C  0.85611221  0.16468486  0.86307380    -0.09800
C1631       C  0.82469610  0.14393674  0.86637567    -0.10700
C1632       C  0.81383522  0.11161701  0.86776635     0.20900
C1633       C  0.83427421  0.10001028  0.86538505    -0.12700
C1634       C  0.86566087  0.12074167  0.86206496    -0.11000
C1635       C  0.78266971  0.09104038  0.87274344     0.01800
C1636       C  0.75745550  0.07607114  0.87799973    -0.31000
C1637       C  0.91013176  0.17468081  0.85985822     0.03200
C1638       C  0.93834755  0.19040000  0.86096826    -0.32700
H1639       H  0.86452313  0.18974379  0.86255591     0.14200
H1640       H  0.80918448  0.15323380  0.86830065     0.14100
H1641       H  0.82626679  0.07514624  0.86653778     0.13900
H1642       H  0.88154285  0.11162180  0.86075970     0.13000
C1643       C  0.79601522  0.23771176  0.94073771     0.19300
C1644       C  0.76581428  0.21988265  0.94604685    -0.09800
C1645       C  0.74666970  0.18820752  0.94251454    -0.10700
C1646       C  0.75763685  0.17426142  0.93363552     0.20900
C1647       C  0.78817168  0.19184589  0.92864515    -0.12700
C1648       C  0.80727233  0.22344612  0.93217073    -0.11000
C1649       C  0.73707473  0.14282970  0.92881978     0.01800
C1650       C  0.72131980  0.11776724  0.92347728    -0.31000
C1651       C  0.81381944  0.27136355  0.94265387     0.03200
C1652       C  0.82707736  0.29976042  0.94209501    -0.32700
H1653       H  0.75665348  0.23075297  0.95252916     0.14200
H1654       H  0.72303916  0.17493988  0.94637094     0.14100
H1655       H  0.79684611  0.18141884  0.92169876     0.13900
H1656       H  0.83035939  0.23706180  0.92784127     0.13000
C1657       C  0.71010448  0.85966286  0.86957371     0.19300
C1658       C  0.72779399  0.89266089  0.86907558    -0.09800
C1659       C  0.71563279  0.91087325  0.87414968    -0.10700
C1660       C  0.68568126  0.89632024  0.87982162     0.20900
C1661       C  0.66758637  0.86330185  0.88002407    -0.12700
C1662       C  0.67978882  0.84504282  0.87494482    -0.11000
C1663       C  0.67442317  0.91547241  0.88588038     0.01800
C1664       C  0.66749372  0.93348867  0.89091726    -0.31000
C1665       C  0.72478011  0.84134573  0.86615661     0.03200
C1666       C  0.74038262  0.82853868  0.86551522    -0.32700
H1667       H  0.75141794  0.90433518  0.86515344     0.14200
H1668       H  0.72994377  0.93634631  0.87394756     0.14100
H1669       H  0.64443835  0.85169951  0.88439513     0.13900
H1670       H  0.66600177  0.81958299  0.87558633     0.13000
C1671       C  0.57324425  0.94869355  0.80956439     0.19300
C1672       C  0.55403520  0.95520709  0.81751262    -0.09800
C1673       C  0.56481258  0.96919737  0.82970409    -0.10700
C1674       C  0.59490876  0.97683864  0.83405418     0.20900
C1675       C  0.61429150  0.97068351  0.82604086    -0.12700
C1676       C  0.60349829  0.95666887  0.81383713    -0.11000
C1677       C  0.60534812  0.98977244  0.84691457     0.01800
C1678       C  0.61358192  0.99908852  0.85789138    -0.31000
C1679       C  0.56144800  0.93318569  0.79720943     0.03200
C1680       C  0.54968569  0.91968816  0.78713889    -0.32700
H1681       H  0.53060079  0.94915272  0.81434484     0.14200
H1682       H  0.54952699  0.97370022  0.83580072     0.14100
H1683       H  0.63755765  0.97635327  0.82928864     0.13900
H1684       H  0.61859242  0.95174943  0.80780653     0.13000
C1685       C  0.38418257  0.26537790  0.93582136     0.19300
C1686       C  0.36283933  0.23287077  0.93641462    -0.09800
C1687       C  0.37336313  0.21195443  0.93976222    -0.10700
C1688       C  0.40525531  0.22348344  0.94256874     0.20900
C1689       C  0.42628911  0.25605397  0.94247011    -0.12700
C1690       C  0.41579408  0.27692912  0.93911172    -0.11000
C1691       C  0.41743251  0.20222325  0.94365737     0.01800
C1692       C  0.43044898  0.18704858  0.94232928    -0.31000
C1693       C  0.37437904  0.28645621  0.93061592     0.03200
C1694       C  0.36599574  0.30276257  0.92508868    -0.32700
H1695       H  0.33837382  0.22362161  0.93378547     0.14200
H1696       H  0.35695243  0.18681065  0.93960899     0.14100
H1697       H  0.45107987  0.26522695  0.94441950     0.13900
H1698       H  0.43256416  0.30194505  0.93857832     0.13000
C1699       C  0.51292534  0.09355404  0.93263807     0.19300
C1700       C  0.54591371  0.11059228  0.93238253    -0.09800
C1701       C  0.56264545  0.09795390  0.92631407    -0.10700
C1702       C  0.54652200  0.06821265  0.92040095     0.20900
C1703       C  0.51356332  0.05090778  0.92086409    -0.12700
C1704       C  0.49681693  0.06356399  0.92693347    -0.11000
C1705       C  0.56387092  0.05583688  0.91371128     0.01800
C1706       C  0.57972684  0.04663069  0.90840482    -0.31000
C1707       C  0.49579701  0.10856143  0.93716547     0.03200
C1708       C  0.48312073  0.12407883  0.93856243    -0.32700
H1709       H  0.55867184  0.13402835  0.93654264     0.14200
H1710       H  0.58810665  0.11161151  0.92602128     0.14100
H1711       H  0.50079929  0.02791168  0.91632549     0.13900
H1712       H  0.47133470  0.05036871  0.92685191     0.13000
C1713       C  0.58038682  0.83303726  0.02675018     0.19300
C1714       C  0.55964807  0.80043494  0.02744001    -0.09800
C1715       C  0.57062787  0.78026274  0.03135326    -0.10700
C1716       C  0.60239947  0.79260134  0.03461252     0.20900
C1717       C  0.62337464  0.82505006  0.03340131    -0.12700
C1718       C  0.61239197  0.84521778  0.02949823    -0.11000
C1719       C  0.61296992  0.77264176  0.04035681     0.01800
C1720       C  0.62263818  0.75780804  0.04620357    -0.31000
C1721       C  0.56803714  0.85407239  0.02530968     0.03200
C1722       C  0.55620619  0.87032976  0.02666959    -0.32700
H1723       H  0.53476045  0.79078267  0.02555232     0.14200
H1724       H  0.55413747  0.75526905  0.03234491     0.14100
H1725       H  0.64794475  0.83490617  0.03598889     0.13900
H1726       H  0.62856105  0.87040683  0.02921569     0.13000
C1727       C  0.57516285  0.94209491  0.98992372     0.19300
C1728       C  0.60555247  0.96798442  0.98834084    -0.09800
C1729       C  0.61894146  0.97643695  0.97593449    -0.10700
C1730       C  0.60209553  0.95903305  0.96500879     0.20900
C1731       C  0.57165974  0.93323605  0.96659637    -0.12700
C1732       C  0.55828087  0.92479311  0.97899280    -0.11000
C1733       C  0.61576854  0.96776314  0.95217327     0.01800
C1734       C  0.62625141  0.97516521  0.94129736    -0.31000
C1735       C  0.56172939  0.93253517  0.00275404     0.03200
C1736       C  0.55075955  0.92293935  0.01341289    -0.32700
H1737       H  0.61895306  0.98149476  0.99669147     0.14200
H1738       H  0.64244615  0.99648109  0.97486968     0.14100
H1739       H  0.55830662  0.91960458  0.95825959     0.13900
H1740       H  0.53484022  0.90464138  0.98005979     0.13000
C1741       C  0.89952232  0.21271137  0.36726603     0.19300
C1742       C  0.86687649  0.20032672  0.36756704    -0.09800
C1743       C  0.84653601  0.16877870  0.36432205    -0.10700
C1744       C  0.85873294  0.14945247  0.36072884     0.20900
C1745       C  0.89139872  0.16215811  0.35990923    -0.12700
C1746       C  0.91177255  0.19375092  0.36316829    -0.11000
C1747       C  0.83807809  0.11591050  0.35984859     0.01800
C1748       C  0.82192593  0.08788709  0.36144728    -0.31000
C1749       C  0.91997299  0.24362290  0.37251461     0.03200
C1750       C  0.93490542  0.26814924  0.37829411    -0.32700
H1751       H  0.85714411  0.21467577  0.37084979     0.14200
H1752       H  0.82135858  0.15910616  0.36519980     0.14100
H1753       H  0.90110180  0.14730470  0.35734408     0.13900
H1754       H  0.93696663  0.20297889  0.36302287     0.13000
C1755       C  0.77774953  0.24102620  0.44462762     0.19300
C1756       C  0.79536792  0.22620597  0.44224583    -0.09800
C1757       C  0.82675808  0.24394821  0.43823152    -0.10700
C1758       C  0.84076043  0.27664517  0.43654134     0.20900
C1759       C  0.82351631  0.29162901  0.43941222    -0.12700
C1760       C  0.79212179  0.27388258  0.44343148    -0.11000
C1761       C  0.87169743  0.29421743  0.43081002     0.01800
C1762       C  0.89646676  0.30751268  0.42506123    -0.31000
C1763       C  0.74413841  0.22234930  0.44651379     0.03200
C1764       C  0.71573503  0.20778930  0.44588541    -0.32700
H1765       H  0.78447863  0.20081309  0.44296618     0.14200
H1766       H  0.83972379  0.23201764  0.43598016     0.14100
H1767       H  0.83394672  0.31683799  0.43808220     0.13900
H1768       H  0.77869008  0.28562016  0.44507656     0.13000
C1769       C  0.07894472  0.56646145  0.27554575     0.19300
C1770       C  0.09954635  0.59913197  0.27519432    -0.09800
C1771       C  0.08882937  0.61932252  0.27098302    -0.10700
C1772       C  0.05744855  0.60696147  0.26707747     0.20900
C1773       C  0.03658857  0.57439230  0.26785183    -0.12700
C1774       C  0.04731175  0.55420152  0.27205335    -0.11000
C1775       C  0.04723344  0.62716505  0.26125838     0.01800
C1776       C  0.03801893  0.64239304  0.25540091    -0.31000
C1777       C  0.09127647  0.54555297  0.27763395     0.03200
C1778       C  0.10356104  0.52953656  0.27699544    -0.32700
H1779       H  0.12417037  0.60887560  0.27765976     0.14200
H1780       H  0.10525479  0.64440940  0.27033577     0.14100
H1781       H  0.01233185  0.56450751  0.26476519     0.13900
H1782       H  0.03126176  0.52897617  0.27207082     0.13000
C1783       C  0.08288759  0.45681225  0.31456402     0.19300
C1784       C  0.07110385  0.47332283  0.32147704    -0.09800
C1785       C  0.05575768  0.46169949  0.33335716    -0.10700
C1786       C  0.05202699  0.43344990  0.33841488     0.20900
C1787       C  0.06402516  0.41706276  0.33155056    -0.12700
C1788       C  0.07937568  0.42868855  0.31966862    -0.11000
C1789       C  0.03655232  0.42161853  0.35075137     0.01800
C1790       C  0.02509525  0.41199115  0.36133081    -0.31000
C1791       C  0.09796505  0.46845904  0.30214674     0.03200
C1792       C  0.10976122  0.47864252  0.29166520    -0.32700
H1793       H  0.07365792  0.49508902  0.31765763     0.14200
H1794       H  0.04679212  0.47472571  0.33858833     0.14100
H1795       H  0.06149882  0.39531405  0.33537663     0.13900
H1796       H  0.08837555  0.41568621  0.31444272     0.13000
C1797       C  0.25604534  0.10931562  0.36677340     0.19300
C1798       C  0.22402898  0.09532453  0.36358941    -0.09800
C1799       C  0.21130970  0.11405183  0.35966869    -0.10700
C1800       C  0.23050011  0.14690929  0.35888628     0.20900
C1801       C  0.26271144  0.16079110  0.36166246    -0.12700
C1802       C  0.27543396  0.14206578  0.36557535    -0.11000
C1803       C  0.21641608  0.16640822  0.35694258     0.01800
C1804       C  0.20288127  0.18129594  0.35751000    -0.31000
C1805       C  0.26847866  0.09062671  0.37232485     0.03200
C1806       C  0.27940246  0.07669937  0.37805808    -0.32700
H1807       H  0.20870264  0.07010199  0.36456638     0.14200
H1808       H  0.18628720  0.10302379  0.35773757     0.14100
H1809       H  0.27774270  0.18615994  0.36128703     0.13900
H1810       H  0.30016606  0.15324559  0.36810213     0.13000
C1811       C  0.14170840  0.29267467  0.37024811     0.19300
C1812       C  0.12042721  0.29785575  0.36303285    -0.09800
C1813       C  0.10487019  0.31209552  0.36887340    -0.10700
C1814       C  0.11039290  0.32113897  0.38197758     0.20900
C1815       C  0.13227769  0.31670355  0.38907648    -0.12700
C1816       C  0.14783694  0.30252759  0.38324216    -0.11000
C1817       C  0.09227614  0.33313266  0.38833665     0.01800
C1818       C  0.07561356  0.34150190  0.39354972    -0.31000
C1819       C  0.15441624  0.27400290  0.36499701     0.03200
C1820       C  0.16231277  0.25472866  0.36274216    -0.32700
H1821       H  0.11510929  0.28999696  0.35304625     0.14200
H1822       H  0.08789673  0.31523684  0.36327977     0.14100
H1823       H  0.13666975  0.32339706  0.39921692     0.13900
H1824       H  0.16387435  0.29828585  0.38899927     0.13000
C1825       C  0.47086350  0.57715261  0.27475858     0.19300
C1826       C  0.47855896  0.55345790  0.27665064    -0.09800
C1827       C  0.45599438  0.52182893  0.27436059    -0.10700
C1828       C  0.42563755  0.51373858  0.27014816     0.20900
C1829       C  0.41764823  0.53733027  0.26875084    -0.12700
C1830       C  0.44015706  0.56889008  0.27104902    -0.11000
C1831       C  0.40398982  0.48206308  0.26580797     0.01800
C1832       C  0.38760444  0.45686311  0.26063228    -0.31000
C1833       C  0.49498744  0.60998866  0.27497371     0.03200
C1834       C  0.51329991  0.63753626  0.27295727    -0.32700
H1835       H  0.50228588  0.55952029  0.27936464     0.14200
H1836       H  0.46259431  0.50387651  0.27535081     0.14100
H1837       H  0.39441617  0.53149053  0.26536611     0.13900
H1838       H  0.43398484  0.58697860  0.26939319     0.13000
C1839       C  0.54573485  0.49560240  0.19807326     0.19300
C1840       C  0.53079039  0.46354690  0.19472097    -0.09800
C1841       C  0.49945733  0.44314304  0.19838425    -0.10700
C1842       C  0.48294934  0.45467979  0.20545382     0.20900
C1843       C  0.49780603  0.48677115  0.20863197    -0.12700
C1844       C  0.52902179  0.50710361  0.20497633    -0.11000
C1845       C  0.45138288  0.43377371  0.21006289     0.01800
C1846       C  0.42574049  0.41868884  0.21501749    -0.31000
C1847       C  0.57896792  0.51610011  0.19571783     0.03200
C1848       C  0.60727886  0.53276265  0.19589901    -0.32700
H1849       H  0.54356065  0.45420506  0.18956852     0.14200
H1850       H  0.48836113  0.41835050  0.19594060     0.14100
H1851       H  0.48544507  0.49597431  0.21417650     0.13900
H1852       H  0.54038107  0.53166624  0.20782326     0.13000
C1853       C  0.20819886  0.39910899  0.25719206     0.19300
C1854       C  0.17862530  0.39155839  0.25222580    -0.09800
C1855       C  0.16147967  0.40417795  0.25793684    -0.10700
C1856       C  0.17372720  0.42437045  0.26867690     0.20900
C1857       C  0.20286170  0.43111767  0.27389867    -0.12700
C1858       C  0.22000224  0.41846135  0.26819354    -0.11000
C1859       C  0.15862123  0.44155445  0.27300421     0.01800
C1860       C  0.14816763  0.45910745  0.27416278    -0.31000
C1861       C  0.22723232  0.38858411  0.25060361     0.03200
C1862       C  0.24452443  0.38130789  0.24522073    -0.32700
H1863       H  0.16926905  0.37673330  0.24370747     0.14200
H1864       H  0.13924357  0.39917926  0.25366457     0.14100
H1865       H  0.21286326  0.44708600  0.28205509     0.13900
H1866       H  0.24288189  0.42456638  0.27210722     0.13000
C1867       C  0.23357871  0.26341369  0.32314508     0.19300
C1868       C  0.23762813  0.29196449  0.31829006    -0.09800
C1869       C  0.25321055  0.30398084  0.30647013    -0.10700
C1870       C  0.26488201  0.28754953  0.29941422     0.20900
C1871       C  0.26079670  0.25899890  0.30427145    -0.12700
C1872       C  0.24523336  0.24699596  0.31608175    -0.11000
C1873       C  0.28042451  0.29963033  0.28709499     0.01800
C1874       C  0.29229306  0.30954014  0.27659133    -0.31000
C1875       C  0.21712358  0.25057841  0.33523219     0.03200
C1876       C  0.20299106  0.23812937  0.34509523    -0.32700
H1877       H  0.22865095  0.30486293  0.32360792     0.14200
H1878       H  0.25604144  0.32598697  0.30281265     0.14100
H1879       H  0.26953019  0.24594891  0.29890684     0.13900
H1880       H  0.24218267  0.22485717  0.31968120     0.13000
C1881       C  0.20749457  0.82250791  0.02925444     0.19300
C1882       C  0.19355744  0.84118647  0.03100122    -0.09800
C1883       C  0.21188966  0.87264810  0.03495887    -0.10700
C1884       C  0.24424785  0.88559906  0.03722129     0.20900
C1885       C  0.25827742  0.86710473  0.03520994    -0.12700
C1886       C  0.23997018  0.83568600  0.03124753    -0.11000
C1887       C  0.26253091  0.91699999  0.04248721     0.01800
C1888       C  0.27681004  0.94226634  0.04784688    -0.31000
C1889       C  0.18832709  0.78913555  0.02678095     0.03200
C1890       C  0.17434754  0.76067024  0.02659367    -0.32700
H1891       H  0.16843358  0.83120162  0.02967306     0.14200
H1892       H  0.20069637  0.88660206  0.03658904     0.14100
H1893       H  0.28318529  0.87670515  0.03703499     0.13900
H1894       H  0.25097678  0.82139869  0.03011301     0.13000
C1895       C  0.11781673  0.90920048  0.10888505     0.19300
C1896       C  0.13219482  0.94161815  0.11148117    -0.09800
C1897       C  0.16399602  0.96169785  0.10841866    -0.10700
C1898       C  0.18155383  0.94944891  0.10272317     0.20900
C1899       C  0.16739584  0.91693952  0.10051951    -0.12700
C1900       C  0.13569185  0.89692372  0.10357047    -0.11000
C1901       C  0.21317543  0.97005241  0.09812065     0.01800
C1902       C  0.23856827  0.98480510  0.09294295    -0.31000
C1903       C  0.08413747  0.88917743  0.11010234     0.03200
C1904       C  0.05586779  0.87333551  0.10901225    -0.32700
H1905       H  0.11856472  0.95151447  0.11542612     0.14200
H1906       H  0.17455552  0.98679837  0.11009419     0.14100
H1907       H  0.18059902  0.90717862  0.09603348     0.13900
H1908       H  0.12482941  0.87203873  0.10134036     0.13000
C1909       C  0.48774971  0.97590181  0.03852720     0.19300
C1910       C  0.45616689  0.96470770  0.03523780    -0.09800
C1911       C  0.43937402  0.97746132  0.04115083    -0.10700
C1912       C  0.45397664  0.00142744  0.05044583     0.20900
C1913       C  0.48574939  0.01310163  0.05355220    -0.12700
C1914       C  0.50256235  0.00033016  0.04763114    -0.11000
C1915       C  0.43590069  0.01309963  0.05703342     0.01800
C1916       C  0.41898859  0.02121842  0.06217589    -0.31000
C1917       C  0.50348125  0.95953819  0.03393361     0.03200
C1918       C  0.51418003  0.94233384  0.03227266    -0.32700
H1919       H  0.44424513  0.94546155  0.02840500     0.14200
H1920       H  0.41480627  0.96814297  0.03869054     0.14100
H1921       H  0.49730396  0.03154248  0.06074786     0.13900
H1922       H  0.52678886  0.00882126  0.05044409     0.13000
C1923       C  0.38907390  0.10100907  0.00460373     0.19300
C1924       C  0.37991469  0.11761442  0.99625314    -0.09800
C1925       C  0.39322209  0.12652274  0.98386657    -0.10700
C1926       C  0.41581107  0.11890139  0.97971451     0.20900
C1927       C  0.42489736  0.10218213  0.98803998    -0.12700
C1928       C  0.41158009  0.09326793  0.00043596    -0.11000
C1929       C  0.42992056  0.12881660  0.96702262     0.01800
C1930       C  0.44110496  0.13861155  0.95641733    -0.31000
C1931       C  0.37576296  0.09229504  0.01748257     0.03200
C1932       C  0.36555775  0.08504232  0.02839417    -0.32700
H1933       H  0.36260665  0.12381280  0.99933771     0.14200
H1934       H  0.38602622  0.13949910  0.97755463     0.14100
H1935       H  0.44237142  0.09618913  0.98498182     0.13900
H1936       H  0.41893596  0.08049105  0.00678630     0.13000
C1937       C  0.57493629  0.09507631  0.20242557     0.19300
C1938       C  0.58277919  0.12648759  0.20427197    -0.09800
C1939       C  0.56066638  0.13580748  0.20160135    -0.10700
C1940       C  0.53055986  0.11379419  0.19708623     0.20900
C1941       C  0.52306243  0.08261693  0.19478332    -0.12700
C1942       C  0.54523718  0.07329281  0.19743595    -0.11000
C1943       C  0.50659526  0.12255459  0.19651636     0.01800
C1944       C  0.48840055  0.13190329  0.19838932    -0.31000
C1945       C  0.59588859  0.08448809  0.20698792     0.03200
C1946       C  0.61118055  0.07435333  0.21209978    -0.32700
H1947       H  0.60549896  0.14345985  0.20825952     0.14200
H1948       H  0.56659034  0.15987598  0.20358999     0.14100
H1949       H  0.49974772  0.06528620  0.19146229     0.13900
H1950       H  0.53878970  0.04885497  0.19609972     0.13000
C1951       C  0.40102991  0.09165844  0.13552839     0.19300
C1952       C  0.41167827  0.12370686  0.13768031    -0.09800
C1953       C  0.42098052  0.13654863  0.15013739    -0.10700
C1954       C  0.41965926  0.11738753  0.16051472     0.20900
C1955       C  0.40895869  0.08534418  0.15835996    -0.12700
C1956       C  0.39966056  0.07251112  0.14591201    -0.11000
C1957       C  0.42971136  0.13049835  0.17333407     0.01800
C1958       C  0.43848802  0.14009884  0.18421363    -0.31000
C1959       C  0.39136847  0.07846535  0.12269684     0.03200
C1960       C  0.38312649  0.06833294  0.11183968    -0.32700
H1961       H  0.41281314  0.13875611  0.12973061     0.14200
H1962       H  0.42926004  0.16135318  0.15166506     0.14100
H1963       H  0.40789342  0.07030147  0.16629876     0.13900
H1964       H  0.39145201  0.04772102  0.14438562     0.13000
C1965       C  0.35933416  0.24040394  0.21544610     0.19300
C1966       C  0.38956745  0.25578996  0.21004401    -0.09800
C1967       C  0.40286331  0.23832534  0.20532091    -0.10700
C1968       C  0.38600490  0.20533482  0.20592612     0.20900
C1969       C  0.35539455  0.18988034  0.21098205    -0.12700
C1970       C  0.34206457  0.20737954  0.21570973    -0.11000
C1971       C  0.40172276  0.18788272  0.20299051     0.01800
C1972       C  0.41766164  0.17549219  0.20264996    -0.31000
C1973       C  0.34699624  0.25872016  0.22128973     0.03200
C1974       C  0.33907320  0.27593950  0.22628880    -0.32700
H1975       H  0.40320441  0.28129561  0.20982228     0.14200
H1976       H  0.42671462  0.25058262  0.20162305     0.14100
H1977       H  0.34229252  0.16441415  0.21168354     0.13900
H1978       H  0.31870716  0.19520561  0.21989585     0.13000
C1979       C  0.08711947  0.30591072  0.10155421     0.19300
C1980       C  0.07545817  0.27332891  0.10164660    -0.09800
C1981       C  0.09511225  0.26142461  0.10512009    -0.10700
C1982       C  0.12659970  0.28198300  0.10853350     0.20900
C1983       C  0.13809697  0.31455649  0.10876560    -0.12700
C1984       C  0.11839563  0.32648475  0.10529509    -0.11000
C1985       C  0.14754846  0.26958948  0.11037395     0.01800
C1986       C  0.16318822  0.25686484  0.10989771    -0.31000
C1987       C  0.06784680  0.31819757  0.09656476     0.03200
C1988       C  0.05298149  0.32859173  0.09123426    -0.32700
H1989       H  0.05146329  0.25718115  0.09865363     0.14200
H1990       H  0.08603331  0.23622639  0.10472825     0.14100
H1991       H  0.16248053  0.33073632  0.11121813     0.13900
H1992       H  0.12780754  0.35174718  0.10514506     0.13000
C1993       C  0.30150644  0.16030337  0.09032451     0.19300
C1994       C  0.28203162  0.14750676  0.10121069    -0.09800
C1995       C  0.26771794  0.16319014  0.10685347    -0.10700
C1996       C  0.27287120  0.19188375  0.10168989     0.20900
C1997       C  0.29303678  0.20508587  0.09102498    -0.12700
C1998       C  0.30732303  0.18939099  0.08537511    -0.11000
C1999       C  0.25435843  0.20556316  0.10609267     0.01800
C2000       C  0.23561969  0.21450684  0.10751443    -0.31000
C2001       C  0.31383440  0.14262000  0.08382654     0.03200
C2002       C  0.32193648  0.12576254  0.07857212    -0.32700
H2003       H  0.27717270  0.12495467  0.10510132     0.14200
H2004       H  0.25180006  0.15240988  0.11494297     0.14100
H2005       H  0.29683245  0.22696467  0.08678578     0.13900
H2006       H  0.32215166  0.19948904  0.07693125     0.13000
C2007       C  0.26282595  0.31756963  0.17020673     0.19300
C2008       C  0.27853526  0.30408357  0.16389048    -0.09800
C2009       C  0.26759917  0.28890253  0.15190460    -0.10700
C2010       C  0.24082546  0.28704796  0.14611663     0.20900
C2011       C  0.22526897  0.30080514  0.15236378    -0.12700
C2012       C  0.23620701  0.31598814  0.16436232    -0.11000
C2013       C  0.22889104  0.27046132  0.13395243     0.01800
C2014       C  0.21768659  0.25623806  0.12394549    -0.31000
C2015       C  0.27324546  0.33161395  0.18292202     0.03200
C2016       C  0.28176025  0.34118992  0.19385896    -0.32700
H2017       H  0.29902218  0.30495149  0.16831315     0.14200
H2018       H  0.27982363  0.27833978  0.14722300     0.14100
H2019       H  0.20449937  0.29950634  0.14802596     0.13900
H2020       H  0.22370173  0.32612553  0.16914474     0.13000
C2021       C  0.09594824  0.84717849  0.60168496     0.19300
C2022       C  0.12853103  0.86138541  0.59978686    -0.09800
C2023       C  0.14845479  0.89284575  0.60339170    -0.10700
C2024       C  0.13594693  0.91030565  0.60895307     0.20900
C2025       C  0.10348765  0.89576865  0.61124791    -0.12700
C2026       C  0.08355719  0.86430769  0.60763590    -0.11000
C2027       C  0.15552374  0.94395053  0.61060472     0.01800
C2028       C  0.16990053  0.97235874  0.60981527    -0.31000
C2029       C  0.07521509  0.81606247  0.59655836     0.03200
C2030       C  0.05919441  0.79108812  0.59116827    -0.32700
H2031       H  0.13840424  0.84849636  0.59510864     0.14200
H2032       H  0.17340908  0.90389086  0.60137330     0.14100
H2033       H  0.09343498  0.90910897  0.61535090     0.13900
H2034       H  0.05841613  0.85371055  0.60907246     0.13000
C2035       C  0.15145059  0.78444890  0.53466020     0.19300
C2036       C  0.16838149  0.81693203  0.53717537    -0.09800
C2037       C  0.19971705  0.83510561  0.53315139    -0.10700
C2038       C  0.21441917  0.82099159  0.52654504     0.20900
C2039       C  0.19722396  0.78866379  0.52369801    -0.12700
C2040       C  0.16584782  0.77046433  0.52772821    -0.11000
C2041       C  0.24791272  0.83877496  0.52411516     0.01800
C2042       C  0.27635899  0.85208608  0.52400614    -0.31000
C2043       C  0.12016973  0.76541270  0.53994935     0.03200
C2044       C  0.09498920  0.75101125  0.54534954    -0.32700
H2045       H  0.15764901  0.82805180  0.54258110     0.14200
H2046       H  0.21278547  0.85994322  0.53557652     0.14100
H2047       H  0.20837309  0.77732925  0.51875093     0.13900
H2048       H  0.15314356  0.74537815  0.52576834     0.13000
C2049       C  0.88161654  0.73785365  0.58824782     0.19300
C2050       C  0.85539535  0.73641868  0.58209347    -0.09800
C2051       C  0.83963026  0.75054094  0.58783701    -0.10700
C2052       C  0.84987671  0.76615866  0.59979978     0.20900
C2053       C  0.87566190  0.76696949  0.60608697    -0.12700
C2054       C  0.89141271  0.75283178  0.60034867    -0.11000
C2055       C  0.83653242  0.78459876  0.60470984     0.01800
C2056       C  0.82850118  0.80381787  0.60688488    -0.31000
C2057       C  0.89945760  0.72545195  0.58191933     0.03200
C2058       C  0.91602479  0.71670085  0.57687576    -0.32700
H2059       H  0.84762681  0.72509179  0.57271793     0.14200
H2060       H  0.82006984  0.75014629  0.58274855     0.14100
H2061       H  0.88419891  0.77936348  0.61521707     0.13900
H2062       H  0.91172977  0.75428205  0.60519692     0.13000
C2063       C  0.91402614  0.60615309  0.65734847     0.19300
C2064       C  0.92667612  0.58965001  0.65101318    -0.09800
C2065       C  0.94100149  0.59967936  0.63882928    -0.10700
C2066       C  0.94284668  0.62634206  0.63288991     0.20900
C2067       C  0.93015549  0.64277650  0.63922547    -0.12700
C2068       C  0.91584086  0.63275512  0.65139351    -0.11000
C2069       C  0.95712332  0.63663427  0.62022320     0.01800
C2070       C  0.96764323  0.64570095  0.60945533    -0.31000
C2071       C  0.89963932  0.59606530  0.67000409     0.03200
C2072       C  0.88855856  0.58725769  0.68071261    -0.32700
H2073       H  0.92549973  0.56906598  0.65549780     0.14200
H2074       H  0.95057782  0.58664677  0.63404754     0.14100
H2075       H  0.93128543  0.66333944  0.63474560     0.13900
H2076       H  0.90623276  0.64577404  0.65615936     0.13000
C2077       C  0.76075959  0.64049357  0.43376208     0.19300
C2078       C  0.75229082  0.60864114  0.43401462    -0.09800
C2079       C  0.77478843  0.60005585  0.43704316    -0.10700
C2080       C  0.80586843  0.62326340  0.43983408     0.20900
C2081       C  0.81406721  0.65505912  0.44007584    -0.12700
C2082       C  0.79153188  0.66365256  0.43706172    -0.11000
C2083       C  0.82984136  0.61457637  0.44059570     0.01800
C2084       C  0.84825199  0.60543533  0.43891430    -0.31000
C2085       C  0.73904372  0.64960554  0.42875009     0.03200
C2086       C  0.72301740  0.65840648  0.42330665    -0.32700
H2087       H  0.72868678  0.59056480  0.43134884     0.14200
H2088       H  0.76829382  0.57543389  0.43663438     0.14100
H2089       H  0.83811530  0.67323729  0.44202878     0.13900
H2090       H  0.79842562  0.68838738  0.43676882     0.13000
C2091       C  0.93219306  0.64476489  0.50280177     0.19300
C2092       C  0.90455153  0.64109406  0.49711923    -0.09800
C2093       C  0.89558684  0.62823046  0.48464260    -0.10700
C2094       C  0.91415983  0.61887096  0.47775343     0.20900
C2095       C  0.94165273  0.62226844  0.48347557    -0.12700
C2096       C  0.95062129  0.63513668  0.49595587    -0.11000
C2097       C  0.90535229  0.60659439  0.46472154     0.01800
C2098       C  0.89757719  0.59748611  0.45369883    -0.31000
C2099       C  0.94158104  0.65819500  0.51565324     0.03200
C2100       C  0.94967953  0.66848934  0.52652435    -0.32700
H2101       H  0.89000614  0.64829871  0.50230594     0.14200
H2102       H  0.87430500  0.62577938  0.48033644     0.14100
H2103       H  0.95625286  0.61516996  0.47826274     0.13900
H2104       H  0.97196742  0.63770182  0.50023946     0.13000
C2105       C  0.97160405  0.49289537  0.42131795     0.19300
C2106       C  0.95917440  0.48860419  0.43388498    -0.09800
C2107       C  0.94885819  0.50866419  0.43864202    -0.10700
C2108       C  0.95107188  0.53317768  0.43086129     0.20900
C2109       C  0.96442118  0.53802526  0.41846045    -0.12700
C2110       C  0.97466753  0.51797543  0.41370502    -0.11000
C2111       C  0.93602339  0.55071116  0.43469153     0.01800
C2112       C  0.92018232  0.56314728  0.43539357    -0.31000
C2113       C  0.97936688  0.47050802  0.41592843     0.03200
C2114       C  0.98441596  0.45084936  0.41130507    -0.32700
H2115       H  0.95656422  0.46919162  0.43984160     0.14200
H2116       H  0.93816700  0.50437532  0.44815946     0.14100
H2117       H  0.96581636  0.55659417  0.41227104     0.13900
H2118       H  0.98407578  0.52144724  0.40396111     0.13000
C2119       C  0.23881299  0.42331725  0.53364828     0.19300
C2120       C  0.20659546  0.40130195  0.53267852    -0.09800
C2121       C  0.18502545  0.41131187  0.52990967    -0.10700
C2122       C  0.19555611  0.44340082  0.52806286     0.20900
C2123       C  0.22787968  0.46530319  0.52859507    -0.12700
C2124       C  0.24945544  0.45529418  0.53137929    -0.11000
C2125       C  0.17324052  0.45433419  0.52731587     0.01800
C2126       C  0.15620977  0.46526771  0.52874970    -0.31000
C2127       C  0.26024460  0.41338819  0.53829699     0.03200
C2128       C  0.27593431  0.40393857  0.54359238    -0.32700
H2129       H  0.19803770  0.37656094  0.53455496     0.14200
H2130       H  0.16009211  0.39420770  0.52971946     0.14100
H2131       H  0.23628088  0.49023334  0.52737730     0.13900
H2132       H  0.27424266  0.47258959  0.53224217     0.13000
C2133       C  0.02835750  0.57374547  0.54669140     0.19300
C2134       C  0.06031935  0.58901751  0.54341696    -0.09800
C2135       C  0.07338026  0.57198449  0.53803229    -0.10700
C2136       C  0.05458657  0.53951938  0.53583762     0.20900
C2137       C  0.02238763  0.52434114  0.53876111    -0.12700
C2138       C  0.00927084  0.54144382  0.54414916    -0.11000
C2139       C  0.06947260  0.52161008  0.53228871     0.01800
C2140       C  0.08559887  0.50944545  0.53168832    -0.31000
C2141       C  0.01585285  0.59128748  0.55309373     0.03200
C2142       C  0.00827903  0.60837235  0.55846514    -0.32700
H2143       H  0.07533969  0.61395935  0.54534304     0.14200
H2144       H  0.09837845  0.58392636  0.53600677     0.14100
H2145       H  0.00769076  0.49917571  0.53728819     0.13900
H2146       H  0.98452792  0.52936256  0.54663949     0.13000
C2147       C  0.08104924  0.44169522  0.49186563     0.19300
C2148       C  0.09666815  0.45718293  0.48046220    -0.09800
C2149       C  0.08593557  0.44251307  0.46838669    -0.10700
C2150       C  0.05952510  0.41220269  0.46760328     0.20900
C2151       C  0.04379854  0.39672687  0.47900181    -0.12700
C2152       C  0.05454933  0.41141647  0.49109432    -0.11000
C2153       C  0.04848661  0.39740605  0.45507509     0.01800
C2154       C  0.03992401  0.38693831  0.44426436    -0.31000
C2155       C  0.09267610  0.45662452  0.50432723     0.03200
C2156       C  0.10330953  0.46890723  0.51470953    -0.32700
H2157       H  0.11720178  0.48054144  0.48090845     0.14200
H2158       H  0.09825212  0.45480342  0.45965823     0.14100
H2159       H  0.02329409  0.37335428  0.47854376     0.13900
H2160       H  0.04228369  0.39913802  0.49983196     0.13000
loop_ 
_geom_bond_atom_site_label_1 
_geom_bond_atom_site_label_2 
_geom_bond_distance 
_geom_bond_site_symmetry_2 
_ccdc_geom_bond_type 
N1            C5   1.353       .  A
N1            C2   1.353       .  A
N1         C2156   1.408       .  S
C2            C3   1.381       .  A
C2         C2140   1.441       .  S
C3            C4   1.376       .  A
C3            H6   1.082       .  S
C4            C5   1.380       .  A
C4            H7   1.082       .  S
C5         C2126   1.441       .  S
N8           C12   1.352       .  A
N8            C9   1.353       .  A
N8         C2098   1.408       .  S
C9           C10   1.381       .  A
C9         C2112   1.439       .  S
C10          C11   1.376       .  A
C10          H13   1.083       .  S
C11          C12   1.380       .  A
C11          H14   1.082       .  S
C12        C2084   1.439       .  S
Fe15         O31   2.060       .  S
Fe15         O21   2.078       .  S
Fe15         O28   2.075       .  S
Fe15         O20   2.059       .  S
Fe15         O26   1.987       .  S
Fe16         O19   2.066       .  S
Fe16         O23   2.082       .  S
Fe16         O27   2.064       .  S
Fe16         O32   2.078       .  S
Fe16         O26   1.982   1_455  S
Fe17         O35   2.076       .  S
Fe17         O22   2.068       .  S
Fe17         O29   2.072   1_455  S
Fe17         O18   2.080   1_455  S
Fe17         O26   1.981   1_455  S
O18          C25   1.269       .  A
O19          C33   1.268       .  A
O20          C25   1.264       .  A
O21          C24   1.270       .  A
O22          C34   1.267       .  A
O23          C36   1.269   1_455  A
C24        C2058   1.443       .  S
C24          O29   1.269       .  A
C25        C2100   1.442       .  S
O27          C30   1.269       .  A
O28          C30   1.270   1_655  A
C30        C2142   1.438       .  S
O31          C36   1.264       .  A
O32          C34   1.269       .  A
C33        C2030   1.439       .  S
C33          O35   1.270       .  A
C34        C2044   1.443       .  S
C36        C2070   1.444       .  S
N37          C41   1.354       .  A
N37          C38   1.356       .  A
N37        C2014   1.410       .  S
C38          C39   1.381       .  A
C38        C2000   1.444       .  S
C39          C40   1.376       .  A
C39          H42   1.083       .  S
C40          C41   1.380       .  A
C40          H43   1.082       .  S
C41        C1986   1.443       .  S
N44          C48   1.351       .  A
N44          C45   1.352       .  A
N44        C1958   1.407       .  S
C45          C46   1.381       .  A
C45        C1972   1.441       .  S
C46          C47   1.377       .  A
C46          H49   1.082       .  S
C47          C48   1.380       .  A
C47          H50   1.082       .  S
C48        C1944   1.441       .  S
Fe51         O67   2.072       .  S
Fe51         O57   2.063       .  S
Fe51         O64   2.060       .  S
Fe51         O56   2.074       .  S
Fe51         O62   1.988       .  S
Fe52         O55   2.069   1_545  S
Fe52         O59   2.071       .  S
Fe52         O63   2.072       .  S
Fe52         O68   2.070   1_545  S
Fe52         O62   1.982       .  S
Fe53         O71   2.069   1_545  S
Fe53         O58   2.072       .  S
Fe53         O65   2.077       .  S
Fe53         O54   2.070       .  S
Fe53         O62   1.982       .  S
O54          C61   1.269       .  A
O55          C69   1.268       .  A
O56          C61   1.269       .  A
O57          C60   1.265       .  A
O58          C70   1.269   1_545  A
O59          C72   1.269       .  A
C60        C1932   1.442       .  S
C60          O65   1.268       .  A
C61        C2002   1.442       .  S
O63          C66   1.267       .  A
O64          C66   1.264       .  A
C66        C1960   1.438       .  S
O67          C72   1.269       .  A
O68          C70   1.268       .  A
C69        C1888   1.439       .  S
C69          O71   1.268       .  A
C70        C1902   1.440       .  S
C72        C1916   1.440       .  S
Fe73         O89   2.061       .  S
Fe73         O79   2.070       .  S
Fe73         O86   2.069       .  S
Fe73         O78   2.062       .  S
Fe73         O84   1.987       .  S
Fe74         O77   2.071       .  S
Fe74         O81   2.079       .  S
Fe74         O85   2.073       .  S
Fe74         O90   2.071       .  S
Fe74         O84   1.982       .  S
Fe75         O93   2.074       .  S
Fe75         O80   2.068       .  S
Fe75         O87   2.068       .  S
Fe75         O76   2.078       .  S
Fe75         O84   1.983       .  S
O76          C83   1.268       .  A
O77          C91   1.270       .  A
O78          C83   1.265       .  A
O79          C82   1.268       .  A
O80          C92   1.267       .  A
O81          C94   1.268       .  A
C82        C1974   1.438       .  S
C82          O87   1.268       .  A
C83        C1874   1.442       .  S
O85          C88   1.270       .  A
O86          C88   1.269       .  A
C88        C1862   1.439       .  S
O89          C94   1.264       .  A
O90          C92   1.268       .  A
C91        C1846   1.441       .  S
C91          O93   1.270       .  A
C92        C1832   1.440       .  S
C94        C2016   1.443       .  S
N95          C99   1.355       .  A
N95          C96   1.356       .  A
N95        C1876   1.409       .  S
C96          C97   1.381       .  A
C96        C1820   1.445       .  S
C97          C98   1.376       .  A
C97         H100   1.082       .  S
C98          C99   1.380       .  A
C98         H101   1.082       .  S
C99        C1804   1.444       .  S
N102        C106   1.354       .  A
N102        C103   1.354       .  A
N102       C1792   1.409       .  S
C103        C104   1.380       .  A
C103       C1860   1.442       .  S
C104        C105   1.375       .  A
C104        H107   1.082       .  S
C105        C106   1.380       .  A
C105        H108   1.082       .  S
C106       C1778   1.442       .  S
Fe109       O125   2.068       .  S
Fe109       O115   2.061       .  S
Fe109       O122   2.058       .  S
Fe109       O114   2.071       .  S
Fe109       O120   1.985   1_455  S
Fe110       O113   2.076       .  S
Fe110       O117   2.068       .  S
Fe110       O121   2.079       .  S
Fe110       O126   2.065       .  S
Fe110       O120   1.983       .  S
Fe111       O129   2.069       .  S
Fe111       O116   2.068       .  S
Fe111       O123   2.076   1_655  S
Fe111       O112   2.071   1_655  S
Fe111       O120   1.983       .  S
O112        C119   1.269       .  A
O113        C127   1.269       .  A
O114        C119   1.268       .  A
O115        C118   1.265       .  A
O116        C128   1.268       .  A
O117        C130   1.269       .  A
C118       C2154   1.441       .  S
C118        O123   1.268       .  A
C119       C1818   1.441       .  S
O121        C124   1.268   1_655  A
O122        C124   1.264       .  A
C124       C1790   1.441       .  S
O125        C130   1.268   1_455  A
O126        C128   1.267       .  A
C127       C1762   1.442       .  S
C127        O129   1.268       .  A
C128       C1750   1.435       .  S
C130       C2114   1.437       .  S
N131        C135   1.353       .  A
N131        C132   1.355       .  A
N131       C1736   1.410       .  S
C132        C133   1.381       .  A
C132       C1918   1.441       .  S
C133        C134   1.375       .  A
C133        H136   1.083       .  S
C134        C135   1.379       .  A
C134        H137   1.082       .  S
C135       C1722   1.440       .  S
N138        C142   1.353       .  A
N138        C139   1.355       .  A
N138       C1930   1.409       .  S
C139        C140   1.381       .  A
C139       C1708   1.442       .  S
C140        C141   1.376       .  A
C140        H143   1.083       .  S
C141        C142   1.379       .  A
C141        H144   1.082       .  S
C142       C1692   1.441       .  S
Fe145       O161   2.065       .  S
Fe145       O151   2.078       .  S
Fe145       O158   2.075   1_565  S
Fe145       O150   2.066       .  S
Fe145       O156   1.986   1_565  S
Fe146       O149   2.062       .  S
Fe146       O153   2.074       .  S
Fe146       O157   2.067       .  S
Fe146       O162   2.069       .  S
Fe146       O156   1.983       .  S
Fe147       O165   2.074       .  S
Fe147       O152   2.067       .  S
Fe147       O159   2.071   1_545  S
Fe147       O148   2.078       .  S
Fe147       O156   1.983       .  S
O148        C155   1.268   1_545  A
O149        C163   1.267       .  A
O150        C155   1.266       .  A
O151        C154   1.270       .  A
O152        C164   1.268       .  A
O153        C166   1.267       .  A
C154       C1664   1.443       .  S
C154        O159   1.269       .  A
C155       C1734   1.444       .  S
O157        C160   1.268       .  A
O158        C160   1.269       .  A
C160       C1706   1.440       .  S
O161        C166   1.266   1_565  A
O162        C164   1.268       .  A
C163       C1636   1.437       .  S
C163        O165   1.269       .  A
C164       C1650   1.437       .  S
C166       C1678   1.442   1_545  S
N167        C171   1.355       .  A
N167        C168   1.357       .  A
N167       C2072   1.410       .  S
C168        C169   1.381       .  A
C168       C1622   1.446       .  S
C169        C170   1.375       .  A
C169        H172   1.082       .  S
C170        C171   1.379       .  A
C170        H173   1.082       .  S
C171       C1608   1.444       .  S
N174        C178   1.355       .  A
N174        C175   1.357       .  A
N174       C1594   1.411       .  S
C175        C176   1.381       .  A
C175       C2056   1.445       .  S
C176        C177   1.375       .  A
C176        H179   1.083       .  S
C177        C178   1.379       .  A
C177        H180   1.082       .  S
C178       C1580   1.443       .  S
N181        C185   1.352       .  A
N181        C182   1.354       .  A
N181       C1680   1.409       .  S
C182        C183   1.381       .  A
C182       C1566   1.442       .  S
C183        C184   1.377       .  A
C183        H186   1.082       .  S
C184        C185   1.380       .  A
C184        H187   1.082       .  S
C185       C1554   1.441       .  S
N188        C192   1.355       .  A
N188        C189   1.357       .  A
N188       C1538   1.410       .  S
C189        C190   1.381       .  A
C189       C1666   1.446       .  S
C190        C191   1.376       .  A
C190        H193   1.083       .  S
C191        C192   1.380       .  A
C191        H194   1.082       .  S
C192       C1524   1.445       .  S
Fe195       O211   2.079       .  S
Fe195       O201   2.062       .  S
Fe195       O208   2.065       .  S
Fe195       O200   2.076       .  S
Fe195       O206   1.987       .  S
Fe196       O199   2.070       .  S
Fe196       O203   2.072       .  S
Fe196       O207   2.078       .  S
Fe196       O212   2.068       .  S
Fe196       O206   1.982       .  S
Fe197       O215   2.066       .  S
Fe197       O202   2.080       .  S
Fe197       O209   2.084       .  S
Fe197       O198   2.067       .  S
Fe197       O206   1.984       .  S
O198        C205   1.268       .  A
O199        C213   1.268       .  A
O200        C205   1.270       .  A
O201        C204   1.265       .  A
O202        C214   1.271       .  A
O203        C216   1.269       .  A
C204       C1596   1.445       .  S
C204        O209   1.269       .  A
C205       C1568   1.440       .  S
O207        C210   1.268       .  A
O208        C210   1.265       .  A
C210       C1540   1.444       .  S
O211        C216   1.270       .  A
O212        C214   1.268       .  A
C213       C1496   1.437       .  S
C213        O215   1.267       .  A
C214       C1512   1.443       .  S
C216       C1624   1.445       .  S
N217        C221   1.356       .  A
N217        C218   1.358       .  A
N217       C1482   1.411       .  S
C218        C219   1.381       .  A
C218       C1468   1.447       .  S
C219        C220   1.375       .  A
C219        H222   1.083       .  S
C220        C221   1.379       .  A
C220        H223   1.082       .  S
C221       C1510   1.446       .  S
N224        C228   1.353       .  A
N224        C225   1.354   1_655  A
N224       C1440   1.409       .  S
C225        C226   1.381       .  A
C225       C1454   1.442       .  S
C226        C227   1.376   1_455  A
C226        H229   1.082       .  S
C227        C228   1.380       .  A
C227        H230   1.082       .  S
C228       C1638   1.441       .  S
Fe231       O247   2.082   1_655  S
Fe231       O237   2.063       .  S
Fe231       O244   2.064       .  S
Fe231       O236   2.080       .  S
Fe231       O242   1.987       .  S
Fe232       O235   2.072       .  S
Fe232       O239   2.071       .  S
Fe232       O243   2.078       .  S
Fe232       O248   2.067   1_455  S
Fe232       O242   1.982   1_455  S
Fe233       O251   2.066       .  S
Fe233       O238   2.075       .  S
Fe233       O245   2.079       .  S
Fe233       O234   2.070       .  S
Fe233       O242   1.984       .  S
O234        C241   1.268       .  A
O235        C249   1.268       .  A
O236        C241   1.270       .  A
O237        C240   1.265       .  A
O238        C250   1.270       .  A
O239        C252   1.269       .  A
C240       C1442   1.442       .  S
C240        O245   1.268       .  A
C241       C1412   1.444       .  S
O243        C246   1.268       .  A
O244        C246   1.265   1_655  A
C246       C1426   1.443       .  S
O247        C252   1.271       .  A
O248        C250   1.268       .  A
C249       C1398   1.439       .  S
C249        O251   1.267   1_455  A
C250       C1610   1.440       .  S
C252       C1470   1.445       .  S
Fe253       O269   2.065       .  S
Fe253       O259   2.075       .  S
Fe253       O266   2.075       .  S
Fe253       O258   2.065       .  S
Fe253       O264   1.987       .  S
Fe254       O257   2.070       .  S
Fe254       O261   2.080       .  S
Fe254       O265   2.075       .  S
Fe254       O270   2.075       .  S
Fe254       O264   1.983       .  S
Fe255       O273   2.070       .  S
Fe255       O260   2.060       .  S
Fe255       O267   2.062       .  S
Fe255       O256   2.076       .  S
Fe255       O264   1.983       .  S
O256        C263   1.268       .  A
O257        C271   1.268       .  A
O258        C263   1.266       .  A
O259        C262   1.269       .  A
O260        C272   1.266       .  A
O261        C274   1.269       .  A
C262       C1456   1.439       .  S
C262        O267   1.266       .  A
C263       C1386   1.441       .  S
O265        C268   1.269       .  A
O266        C268   1.269       .  A
C268       C1370   1.444       .  S
O269        C274   1.266       .  A
O270        C272   1.269       .  A
C271       C1356   1.439       .  S
C271        O273   1.269       .  A
C272       C1694   1.437       .  S
C274       C1484   1.444       .  S
N275        C279   1.353       .  A
N275        C276   1.354       .  A
N275       C1384   1.409       .  S
C276        C277   1.381       .  A
C276       C1342   1.442       .  S
C277        C278   1.376       .  A
C277        H280   1.083       .  S
C278        C279   1.380       .  A
C278        H281   1.082       .  S
C279       C1330   1.441       .  S
N282        C286   1.355       .  A
N282        C283   1.356       .  A
N282       C1316   1.410       .  S
C283        C284   1.381       .  A
C283       C1372   1.445       .  S
C284        C285   1.376       .  A
C284        H287   1.082       .  S
C285        C286   1.380       .  A
C285        H288   1.082       .  S
C286       C1300   1.444       .  S
Fe289       O305   2.078       .  S
Fe289       O295   2.065       .  S
Fe289       O302   2.064       .  S
Fe289       O294   2.082       .  S
Fe289       O300   1.985       .  S
Fe290       O293   2.075       .  S
Fe290       O297   2.067       .  S
Fe290       O301   2.081       .  S
Fe290       O306   2.064       .  S
Fe290       O300   1.984       .  S
Fe291       O309   2.061       .  S
Fe291       O296   2.071       .  S
Fe291       O303   2.077       .  S
Fe291       O292   2.068       .  S
Fe291       O300   1.982       .  S
O292        C299   1.268       .  A
O293        C307   1.269       .  A
O294        C299   1.271       .  A
O295        C298   1.266       .  A
O296        C308   1.269       .  A
O297        C310   1.268       .  A
C298       C1314   1.443       .  S
C298        O303   1.268       .  A
C299       C1272   1.445       .  S
O301        C304   1.269       .  A
O302        C304   1.265       .  A
C304       C1286   1.445       .  S
O305        C310   1.270       .  A
O306        C308   1.267       .  A
C307       C1720   1.437       .  S
C307        O309   1.266       .  A
C308       C1258   1.436       .  S
C310       C1344   1.441       .  S
N311        C315   1.355       .  A
N311        C312   1.357       .  A
N311       C1246   1.410       .  S
C312        C313   1.381       .  A
C312       C1414   1.445       .  S
C313        C314   1.375       .  A
C313        H316   1.082       .  S
C314        C315   1.379       .  A
C314        H317   1.082       .  S
C315       C1232   1.444       .  S
N318        C322   1.354       .  A
N318        C319   1.355   1_455  A
N318       C1428   1.409       .  S
C319        C320   1.381       .  A
C319       C1216   1.444       .  S
C320        C321   1.376   1_655  A
C320        H323   1.082       .  S
C321        C322   1.380       .  A
C321        H324   1.082       .  S
C322       C1202   1.443       .  S
N325        C329   1.355       .  A
N325        C326   1.357       .  A
N325       C1188   1.409       .  S
C326        C327   1.381       .  A
C326       C1176   1.447       .  S
C327        C328   1.377       .  A
C327        H330   1.082       .  S
C328        C329   1.380       .  A
C328        H331   1.082       .  S
C329       C2042   1.446       .  S
N332        C336   1.354       .  A
N332        C333   1.356       .  A
N332       C1146   1.409       .  S
C333        C334   1.381       .  A
C333       C1162   1.445       .  S
C334        C335   1.376       .  A
C334        H337   1.082       .  S
C335        C336   1.380       .  A
C335        H338   1.082       .  S
C336       C1764   1.444       .  S
Fe339       O355   2.059       .  S
Fe339       O345   2.077       .  S
Fe339       O352   2.080       .  S
Fe339       O344   2.057       .  S
Fe339       O350   1.987       .  S
Fe340       O343   2.069       .  S
Fe340       O347   2.080   1_565  S
Fe340       O351   2.075   1_565  S
Fe340       O356   2.074       .  S
Fe340       O350   1.981   1_565  S
Fe341       O359   2.071       .  S
Fe341       O346   2.070   1_545  S
Fe341       O353   2.072       .  S
Fe341       O342   2.079       .  S
Fe341       O350   1.983       .  S
O342        C349   1.268       .  A
O343        C357   1.268       .  A
O344        C349   1.263       .  A
O345        C348   1.271       .  A
O346        C358   1.268       .  A
O347        C360   1.268       .  A
C348       C1218   1.443       .  S
C348        O353   1.270       .  A
C349       C1148   1.441       .  S
O351        C354   1.270       .  A
O352        C354   1.271       .  A
C354       C1174   1.445       .  S
O355        C360   1.263       .  A
O356        C358   1.269       .  A
C357       C1582   1.439       .  S
C357        O359   1.269   1_565  A
C358       C1132   1.441       .  S
C360       C1244   1.443       .  S
Fe361       O377   2.074   1_565  S
Fe361       O367   2.060       .  S
Fe361       O374   2.064       .  S
Fe361       O366   2.071       .  S
Fe361       O372   1.988   1_565  S
Fe362       O365   2.070       .  S
Fe362       O369   2.073       .  S
Fe362       O373   2.077       .  S
Fe362       O378   2.070       .  S
Fe362       O372   1.982       .  S
Fe363       O381   2.068       .  S
Fe363       O368   2.076       .  S
Fe363       O375   2.081       .  S
Fe363       O364   2.071   1_545  S
Fe363       O372   1.984       .  S
O364        C371   1.269       .  A
O365        C379   1.269       .  A
O366        C371   1.268       .  A
O367        C370   1.265       .  A
O368        C380   1.270       .  A
O369        C382   1.269       .  A
C370       C1190   1.443       .  S
C370        O375   1.269   1_565  A
C371       C1104   1.440       .  S
O373        C376   1.268       .  A
O374        C376   1.265   1_565  A
C376       C1118   1.442   1_545  S
O377        C382   1.269       .  A
O378        C380   1.268       .  A
C379       C1092   1.438       .  S
C379        O381   1.268       .  A
C380       C1806   1.442       .  S
C382       C1160   1.443       .  S
N383        C387   1.352       .  A
N383        C384   1.353   1_655  A
N383       C1076   1.408       .  S
C384        C385   1.381       .  A
C384       C1106   1.442       .  S
C385        C386   1.376   1_455  A
C385        H388   1.083       .  S
C386        C387   1.380       .  A
C386        H389   1.082       .  S
C387       C1062   1.441       .  S
N390        C394   1.354       .  A
N390        C391   1.356       .  A
N390       C1120   1.410       .  S
C391        C392   1.381       .  A
C391       C1050   1.445       .  S
C392        C393   1.375       .  A
C392        H395   1.082       .  S
C393        C394   1.379       .  A
C393        H396   1.082       .  S
C394       C1034   1.443       .  S
N397        C401   1.355   1_655  A
N397        C398   1.357       .  A
N397       C1020   1.410   1_655  S
C398        C399   1.381       .  A
C398       C1274   1.447       .  S
C399        C400   1.376   1_655  A
C399        H402   1.082       .  S
C400        C401   1.379       .  A
C400        H403   1.082       .  S
C401       C1904   1.445       .  S
N404        C408   1.356       .  A
N404        C405   1.357       .  A
N404       C1288   1.411       .  S
C405        C406   1.380       .  A
C405       C1006   1.446       .  S
C406        C407   1.375       .  A
C406        H409   1.083       .  S
C407        C408   1.380       .  A
C407        H410   1.082       .  S
C408       C1848   1.445       .  S
Fe411       O427   2.065   1_455  S
Fe411       O417   2.079       .  S
Fe411       O424   2.080   1_455  S
Fe411       O416   2.065       .  S
Fe411       O422   1.987       .  S
Fe412       O415   2.065       .  S
Fe412       O419   2.070       .  S
Fe412       O423   2.069       .  S
Fe412       O428   2.066       .  S
Fe412       O422   1.983   1_655  S
Fe413       O431   2.074       .  S
Fe413       O418   2.066       .  S
Fe413       O425   2.069       .  S
Fe413       O414   2.079       .  S
Fe413       O422   1.984       .  S
O414        C421   1.269       .  A
O415        C429   1.267   1_655  A
O416        C421   1.266       .  A
O417        C420   1.270       .  A
O418        C430   1.267   1_455  A
O419        C432   1.267       .  A
C420       C1048   1.444       .  S
C420        O425   1.268       .  A
C421       C1022   1.443       .  S
O423        C426   1.268       .  A
O424        C426   1.270       .  A
C426       C1008   1.444       .  S
O427        C432   1.266       .  A
O428        C430   1.267       .  A
C429       C1776   1.438       .  S
C429        O431   1.269       .  A
C430        C992   1.436       .  S
C432       C1078   1.439       .  S
N433        C437   1.354       .  A
N433        C434   1.356       .  A
N433        C978   1.409       .  S
C434        C435   1.381       .  A
C434        C964   1.445       .  S
C435        C436   1.376       .  A
C435        H438   1.083       .  S
C436        C437   1.380       .  A
C436        H439   1.082       .  S
C437       C1400   1.444       .  S
N440        C444   1.353       .  A
N440        C441   1.354       .  A
N440        C936   1.408       .  S
C441        C442   1.381       .  A
C441        C950   1.443   1_545  S
C442        C443   1.377       .  A
C442        H445   1.082   1_545  S
C443        C444   1.380       .  A
C443        H446   1.082       .  S
C444       C1358   1.443       .  S
Fe447       O463   2.076       .  S
Fe447       O453   2.066       .  S
Fe447       O460   2.062       .  S
Fe447       O452   2.078   1_545  S
Fe447       O458   1.987       .  S
Fe448       O451   2.073       .  S
Fe448       O455   2.071       .  S
Fe448       O459   2.076       .  S
Fe448       O464   2.066       .  S
Fe448       O458   1.983       .  S
Fe449       O467   2.068   1_565  S
Fe449       O454   2.067       .  S
Fe449       O461   2.074   1_565  S
Fe449       O450   2.070       .  S
Fe449       O458   1.982   1_565  S
O450        C457   1.268       .  A
O451        C465   1.269       .  A
O452        C457   1.270       .  A
O453        C456   1.266       .  A
O454        C466   1.268   1_565  A
O455        C468   1.269       .  A
C456        C922   1.442       .  S
C456        O461   1.268       .  A
C457        C966   1.444       .  S
O459        C462   1.268       .  A
O460        C462   1.265       .  A
C462        C938   1.441       .  S
O463        C468   1.270       .  A
O464        C466   1.268       .  A
C465       C1230   1.440       .  S
C465        O467   1.268       .  A
C466       C1552   1.436   1_545  S
C468        C908   1.442       .  S
N469        C473   1.351       .  A
N469        C470   1.353       .  A
N469        C894   1.408       .  S
C470        C471   1.381       .  A
C470        C882   1.440   1_545  S
C471        C472   1.376       .  A
C471        H474   1.082       .  S
C472        C473   1.380       .  A
C472        H475   1.082       .  S
C473       C1748   1.439       .  S
N476        C480   1.354       .  A
N476        C477   1.356       .  A
N476        C852   1.410       .  S
C477        C478   1.381       .  A
C477        C866   1.445       .  S
C478        C479   1.376       .  A
C478        H481   1.083       .  S
C479        C480   1.380       .  A
C479        H482   1.082       .  S
C480       C1834   1.444       .  S
N483        C487   1.354       .  A
N483        C484   1.355       .  A
N483        C840   1.410       .  S
C484        C485   1.380       .  A
C484        C824   1.444       .  S
C485        C486   1.376       .  A
C485        H488   1.083       .  S
C486        C487   1.380       .  A
C486        H489   1.082       .  S
C487       C1890   1.443       .  S
N490        C494   1.353       .  A
N490        C491   1.354       .  A
N490        C796   1.409       .  S
C491        C492   1.381       .  A
C491        C810   1.443       .  S
C492        C493   1.377       .  A
C492        H495   1.082       .  S
C493        C494   1.380       .  A
C493        H496   1.082       .  S
C494       C1652   1.442       .  S
N497        C501   1.352       .  A
N497        C498   1.354       .  A
N497        C782   1.408       .  S
C498        C499   1.381       .  A
C498        C770   1.441       .  S
C499        C500   1.376       .  A
C499        H502   1.083       .  S
C500        C501   1.380       .  A
C500        H503   1.082       .  S
C501       C1260   1.440   1_545  S
N504        C508   1.353       .  A
N504        C505   1.355       .  A
N504        C740   1.410       .  S
C505        C506   1.381       .  A
C505        C754   1.442       .  S
C506        C507   1.376       .  A
C506        H509   1.083       .  S
C507        C508   1.379       .  A
C507        H510   1.082       .  S
C508        C994   1.441       .  S
Fe511       O527   2.074       .  S
Fe511       O517   2.064       .  S
Fe511       O524   2.066       .  S
Fe511       O516   2.073       .  S
Fe511       O522   1.987       .  S
Fe512       O515   2.071       .  S
Fe512       O519   2.069       .  S
Fe512       O523   2.078       .  S
Fe512       O528   2.067       .  S
Fe512       O522   1.983   1_455  S
Fe513       O531   2.064   1_655  S
Fe513       O518   2.071   1_655  S
Fe513       O525   2.074       .  S
Fe513       O514   2.068       .  S
Fe513       O522   1.981       .  S
O514        C521   1.269       .  A
O515        C529   1.269       .  A
O516        C521   1.270       .  A
O517        C520   1.265       .  A
O518        C530   1.268       .  A
O519        C532   1.268       .  A
C520        C798   1.442       .  S
C520        O525   1.267       .  A
C521        C768   1.438       .  S
O523        C526   1.268   1_455  A
O524        C526   1.266       .  A
C526        C742   1.444       .  S
O527        C532   1.269   1_655  A
O528        C530   1.267       .  A
C529       C1328   1.436       .  S
C529        O531   1.268       .  A
C530       C1988   1.439       .  S
C532        C826   1.442       .  S
Fe533       O549   2.064       .  S
Fe533       O539   2.075       .  S
Fe533       O546   2.076   1_545  S
Fe533       O538   2.063       .  S
Fe533       O544   1.986       .  S
Fe534       O537   2.064       .  S
Fe534       O541   2.075       .  S
Fe534       O545   2.070   1_545  S
Fe534       O550   2.071   1_545  S
Fe534       O544   1.983       .  S
Fe535       O553   2.070       .  S
Fe535       O540   2.067       .  S
Fe535       O547   2.067       .  S
Fe535       O536   2.072       .  S
Fe535       O544   1.983       .  S
O536        C543   1.267       .  A
O537        C551   1.267       .  A
O538        C543   1.265       .  A
O539        C542   1.270       .  A
O540        C552   1.267       .  A
O541        C554   1.267       .  A
C542        C756   1.440       .  S
C542        O547   1.268       .  A
C543        C896   1.440       .  S
O545        C548   1.269       .  A
O546        C548   1.270       .  A
C548        C868   1.442       .  S
O549        C554   1.265       .  A
O550        C552   1.268   1_565  A
C551       C1946   1.436       .  S
C551        O553   1.268       .  A
C552       C1036   1.438   1_545  S
C554        C784   1.442       .  S
Fe555       O571   2.065       .  S
Fe555       O561   2.074       .  S
Fe555       O568   2.074       .  S
Fe555       O560   2.065       .  S
Fe555       O566   1.988   1_455  S
Fe556       O559   2.067       .  S
Fe556       O563   2.078       .  S
Fe556       O567   2.067       .  S
Fe556       O572   2.074       .  S
Fe556       O566   1.983       .  S
Fe557       O575   2.073       .  S
Fe557       O562   2.066       .  S
Fe557       O569   2.069   1_655  S
Fe557       O558   2.076   1_655  S
Fe557       O566   1.982       .  S
O558        C565   1.268       .  A
O559        C573   1.267       .  A
O560        C565   1.266       .  A
O561        C564   1.269       .  A
O562        C574   1.268       .  A
O563        C576   1.269   1_655  A
C564        C952   1.441       .  S
C564        O569   1.268       .  A
C565        C838   1.442       .  S
O567        C570   1.268       .  A
O568        C570   1.269   1_455  A
C570        C812   1.441       .  S
O571        C576   1.266       .  A
O572        C574   1.270       .  A
C573       C1526   1.440       .  S
C573        O575   1.269       .  A
C574       C1302   1.439       .  S
C576        C980   1.442       .  S
N577        C581   1.353       .  A
N577        C578   1.354       .  A
N577        C726   1.409       .  S
C578        C579   1.381       .  A
C578        C712   1.443       .  S
C579        C580   1.377       .  A
C579        H582   1.083       .  S
C580        C581   1.380       .  A
C580        H583   1.082       .  S
C581       C1090   1.443       .  S
N584        C588   1.355       .  A
N584        C585   1.356       .  A
N584        C684   1.410       .  S
C585        C586   1.381       .  A
C585        C698   1.445       .  S
C586        C587   1.376       .  A
C586        H589   1.082       .  S
C587        C588   1.380       .  A
C587        H590   1.082       .  S
C588       C1134   1.444       .  S
Fe591       O607   2.073       .  S
Fe591       O597   2.063       .  S
Fe591       O604   2.065       .  S
Fe591       O596   2.073       .  S
Fe591       O602   1.986       .  S
Fe592       O595   2.074       .  S
Fe592       O599   2.065       .  S
Fe592       O603   2.079       .  S
Fe592       O608   2.061       .  S
Fe592       O602   1.982       .  S
Fe593       O611   2.058       .  S
Fe593       O598   2.075       .  S
Fe593       O605   2.079       .  S
Fe593       O594   2.064       .  S
Fe593       O602   1.982       .  S
O594        C601   1.267       .  A
O595        C609   1.269       .  A
O596        C601   1.269       .  A
O597        C600   1.266       .  A
O598        C610   1.269       .  A
O599        C612   1.267       .  A
C600        C686   1.443       .  S
C600        O605   1.269       .  A
C601        C880   1.438       .  S
O603        C606   1.269       .  A
O604        C606   1.266       .  A
C606        C854   1.443       .  S
O607        C612   1.268       .  A
O608        C610   1.266       .  A
C609       C2086   1.435       .  S
C609        O611   1.266       .  A
C610       C1064   1.437       .  S
C612        C714   1.439       .  S
N613        C617   1.353       .  A
N613        C614   1.355       .  A
N613        C670   1.408       .  S
C614        C615   1.381       .  A
C614        C910   1.444       .  S
C615        C616   1.377       .  A
C615        H618   1.082       .  S
C616        C617   1.379       .  A
C616        H619   1.082       .  S
C617       C1498   1.443       .  S
N620        C624   1.354       .  A
N620        C621   1.356       .  A
N620        C924   1.410       .  S
C621        C622   1.381       .  A
C621        C656   1.445       .  S
C622        C623   1.376       .  A
C622        H625   1.082       .  S
C623        C624   1.379       .  A
C623        H626   1.082   1_545  S
C624       C2028   1.444   1_545  S
Fe627       O643   2.063       .  S
Fe627       O633   2.078       .  S
Fe627       O640   2.076       .  S
Fe627       O632   2.065       .  S
Fe627       O638   1.986       .  S
Fe628       O631   2.067       .  S
Fe628       O635   2.074       .  S
Fe628       O639   2.070       .  S
Fe628       O644   2.069       .  S
Fe628       O638   1.983       .  S
Fe629       O647   2.072       .  S
Fe629       O634   2.066       .  S
Fe629       O641   2.070       .  S
Fe629       O630   2.075       .  S
Fe629       O638   1.983       .  S
O630        C637   1.268       .  A
O631        C645   1.268       .  A
O632        C637   1.266       .  A
O633        C636   1.270       .  A
O634        C646   1.267       .  A
O635        C648   1.267       .  A
C636        C658   1.444       .  S
C636        O641   1.268       .  A
C637        C728   1.442       .  S
O639        C642   1.269       .  A
O640        C642   1.270       .  A
C642        C700   1.442       .  S
O643        C648   1.265       .  A
O644        C646   1.268       .  A
C645       C1204   1.438       .  S
C645        O647   1.269       .  A
C646       C2128   1.437       .  S
C648        C672   1.440       .  S
C649        C650   1.402       .  A
C649        C654   1.403       .  A
C649        C657   1.449       .  S
C650        C651   1.403       .  A
C650        H659   1.083       .  S
C651        C652   1.403       .  A
C651        H660   1.083       .  S
C652        C653   1.402       .  A
C652        C655   1.448       .  S
C653        C654   1.402       .  A
C653        H661   1.083       .  S
C654        H662   1.083       .  S
C655        C656   1.210       .  T
C657        C658   1.211       .  T
C663        C664   1.403       .  A
C663        C668   1.402       .  A
C663        C671   1.445       .  S
C664        C665   1.402       .  A
C664        H673   1.083       .  S
C665        C666   1.402       .  A
C665        H674   1.084       .  S
C666        C667   1.402       .  A
C666        C669   1.445       .  S
C667        C668   1.400       .  A
C667        H675   1.083       .  S
C668        H676   1.084       .  S
C669        C670   1.209       .  T
C671        C672   1.209       .  T
C677        C678   1.404       .  A
C677        C682   1.402       .  A
C677        C685   1.448       .  S
C678        C679   1.402       .  A
C678        H687   1.084       .  S
C679        C680   1.402       .  A
C679        H688   1.083       .  S
C680        C681   1.403       .  A
C680        C683   1.447       .  S
C681        C682   1.402       .  A
C681        H689   1.084       .  S
C682        H690   1.083       .  S
C683        C684   1.210       .  T
C685        C686   1.211       .  T
C691        C692   1.402       .  A
C691        C696   1.403       .  A
C691        C699   1.447       .  S
C692        C693   1.401       .  A
C692        H701   1.084       .  S
C693        C694   1.402       .  A
C693        H702   1.083       .  S
C694        C695   1.403       .  A
C694        C697   1.447       .  S
C695        C696   1.403       .  A
C695        H703   1.084       .  S
C696        H704   1.083       .  S
C697        C698   1.210       .  T
C699        C700   1.210       .  T
C705        C706   1.402       .  A
C705        C710   1.402       .  A
C705        C713   1.444       .  S
C706        C707   1.399       .  A
C706        H715   1.083       .  S
C707        C708   1.402       .  A
C707        H716   1.084       .  S
C708        C709   1.402       .  A
C708        C711   1.444       .  S
C709        C710   1.402       .  A
C709        H717   1.083       .  S
C710        H718   1.084       .  S
C711        C712   1.208       .  T
C713        C714   1.209       .  T
C719        C720   1.402       .  A
C719        C724   1.403       .  A
C719        C727   1.446       .  S
C720        C721   1.401       .  A
C720        H729   1.084       .  S
C721        C722   1.403       .  A
C721        H730   1.083       .  S
C722        C723   1.402       .  A
C722        C725   1.446       .  S
C723        C724   1.402       .  A
C723        H731   1.084       .  S
C724        H732   1.083       .  S
C725        C726   1.209       .  T
C727        C728   1.210       .  T
C733        C734   1.404       .  A
C733        C738   1.402       .  A
C733        C741   1.449       .  S
C734        C735   1.403       .  A
C734        H743   1.084       .  S
C735        C736   1.402       .  A
C735        H744   1.083       .  S
C736        C737   1.403       .  A
C736        C739   1.448       .  S
C737        C738   1.402       .  A
C737        H745   1.084       .  S
C738        H746   1.083       .  S
C739        C740   1.210       .  T
C741        C742   1.211       .  T
C747        C748   1.401       .  A
C747        C752   1.403       .  A
C747        C755   1.444       .  S
C748        C749   1.401       .  A
C748        H757   1.083       .  S
C749        C750   1.403       .  A
C749        H758   1.084       .  S
C750        C751   1.401       .  A
C750        C753   1.444       .  S
C751        C752   1.401       .  A
C751        H759   1.083       .  S
C752        H760   1.084       .  S
C753        C754   1.208       .  T
C755        C756   1.209       .  T
C761        C762   1.403       .  A
C761        C766   1.401       .  A
C761        C769   1.443       .  S
C762        C763   1.404       .  A
C762        H771   1.083       .  S
C763        C764   1.404       .  A
C763        H772   1.083       .  S
C764        C765   1.400       .  A
C764        C767   1.443       .  S
C765        C766   1.397       .  A
C765        H773   1.084       .  S
C766        H774   1.083       .  S
C767        C768   1.208       .  T
C769        C770   1.207       .  T
C775        C776   1.403       .  A
C775        C780   1.403       .  A
C775        C783   1.447       .  S
C776        C777   1.402       .  A
C776        H785   1.084   1_545  S
C777        C778   1.403       .  A
C777        H786   1.083   1_545  S
C778        C779   1.401       .  A
C778        C781   1.445       .  S
C779        C780   1.400       .  A
C779        H787   1.084       .  S
C780        H788   1.083       .  S
C781        C782   1.209       .  T
C783        C784   1.210       .  T
C789        C790   1.402   1_554  A
C789        C794   1.403   1_554  A
C789        C797   1.446       .  S
C790        C791   1.400       .  A
C790        H799   1.084   1_556  S
C791        C792   1.402       .  A
C791        H800   1.083       .  S
C792        C793   1.403       .  A
C792        C795   1.446       .  S
C793        C794   1.403       .  A
C793        H801   1.084       .  S
C794        H802   1.083       .  S
C795        C796   1.210       .  T
C797        C798   1.210       .  T
C803        C804   1.402       .  A
C803        C808   1.402       .  A
C803        C811   1.445       .  S
C804        C805   1.402       .  A
C804        H813   1.083       .  S
C805        C806   1.403       .  A
C805        H814   1.084       .  S
C806        C807   1.402       .  A
C806        C809   1.445       .  S
C807        C808   1.400       .  A
C807        H815   1.083       .  S
C808        H816   1.084       .  S
C809        C810   1.209       .  T
C811        C812   1.209       .  T
C817        C818   1.403       .  A
C817        C822   1.402       .  A
C817        C825   1.447       .  S
C818        C819   1.401       .  A
C818        H827   1.083       .  S
C819        C820   1.403       .  A
C819        H828   1.084       .  S
C820        C821   1.402       .  A
C820        C823   1.445       .  S
C821        C822   1.402       .  A
C821        H829   1.083       .  S
C822        H830   1.083       .  S
C823        C824   1.209       .  T
C825        C826   1.210       .  T
C831        C832   1.403       .  A
C831        C836   1.402       .  A
C831        C839   1.447   1_556  S
C832        C833   1.403       .  A
C832        H841   1.083       .  S
C833        C834   1.403       .  A
C833        H842   1.084       .  S
C834        C835   1.403       .  A
C834        C837   1.447       .  S
C835        C836   1.401       .  A
C835        H843   1.083       .  S
C836        H844   1.084       .  S
C837        C838   1.210       .  T
C839        C840   1.210       .  T
C845        C846   1.403       .  A
C845        C850   1.403       .  A
C845        C853   1.448       .  S
C846        C847   1.402       .  A
C846        H855   1.084       .  S
C847        C848   1.403       .  A
C847        H856   1.083       .  S
C848        C849   1.403       .  A
C848        C851   1.447       .  S
C849        C850   1.402       .  A
C849        H857   1.084       .  S
C850        H858   1.083       .  S
C851        C852   1.210       .  T
C853        C854   1.211       .  T
C859        C860   1.403       .  A
C859        C864   1.402       .  A
C859        C867   1.447       .  S
C860        C861   1.402       .  A
C860        H869   1.084       .  S
C861        C862   1.403       .  A
C861        H870   1.083       .  S
C862        C863   1.403       .  A
C862        C865   1.447       .  S
C863        C864   1.401       .  A
C863        H871   1.083       .  S
C864        H872   1.083       .  S
C865        C866   1.210       .  T
C867        C868   1.210       .  T
C873        C874   1.402       .  A
C873        C878   1.401       .  A
C873        C881   1.442       .  S
C874        C875   1.400       .  A
C874        H883   1.083       .  S
C875        C876   1.401       .  A
C875        H884   1.084       .  S
C876        C877   1.402       .  A
C876        C879   1.443       .  S
C877        C878   1.400       .  A
C877        H885   1.083       .  S
C878        H886   1.084       .  S
C879        C880   1.208       .  T
C881        C882   1.207       .  T
C887        C888   1.403       .  A
C887        C892   1.402       .  A
C887        C895   1.444       .  S
C888        C889   1.401       .  A
C888        H897   1.083       .  S
C889        C890   1.402       .  A
C889        H898   1.084       .  S
C890        C891   1.402       .  A
C890        C893   1.444       .  S
C891        C892   1.401       .  A
C891        H899   1.083       .  S
C892        H900   1.084       .  S
C893        C894   1.209       .  T
C895        C896   1.209       .  T
C901        C902   1.402       .  A
C901        C906   1.403       .  A
C901        C909   1.446       .  S
C902        C903   1.400       .  A
C902        H911   1.084       .  S
C903        C904   1.402       .  A
C903        H912   1.083       .  S
C904        C905   1.403       .  A
C904        C907   1.447       .  S
C905        C906   1.403       .  A
C905        H913   1.083       .  S
C906        H914   1.083       .  S
C907        C908   1.210       .  T
C909        C910   1.209       .  T
C915        C916   1.403   1_545  A
C915        C920   1.402       .  A
C915        C923   1.447       .  S
C916        C917   1.402       .  A
C916        H925   1.084       .  S
C917        C918   1.402   1_565  A
C917        H926   1.083       .  S
C918        C919   1.403       .  A
C918        C921   1.447       .  S
C919        C920   1.402       .  A
C919        H927   1.084       .  S
C920        H928   1.083       .  S
C921        C922   1.210       .  T
C923        C924   1.210       .  T
C929        C930   1.403       .  A
C929        C934   1.402       .  A
C929        C937   1.446       .  S
C930        C931   1.402       .  A
C930        H939   1.084   1_545  S
C931        C932   1.402       .  A
C931        H940   1.083   1_545  S
C932        C933   1.403       .  A
C932        C935   1.445       .  S
C933        C934   1.401       .  A
C933        H941   1.084       .  S
C934        H942   1.083       .  S
C935        C936   1.209       .  T
C937        C938   1.210       .  T
C943        C944   1.401       .  A
C943        C948   1.404       .  A
C943        C951   1.445       .  S
C944        C945   1.398       .  A
C944        H953   1.084       .  S
C945        C946   1.401       .  A
C945        H954   1.083       .  S
C946        C947   1.403       .  A
C946        C949   1.445       .  S
C947        C948   1.404       .  A
C947        H955   1.083       .  S
C948        H956   1.083       .  S
C949        C950   1.209       .  T
C951        C952   1.209       .  T
C957        C958   1.403       .  A
C957        C962   1.403       .  A
C957        C965   1.449       .  S
C958        C959   1.402       .  A
C958        H967   1.084       .  S
C959        C960   1.403       .  A
C959        H968   1.083       .  S
C960        C961   1.403       .  A
C960        C963   1.448       .  S
C961        C962   1.403       .  A
C961        H969   1.083       .  S
C962        H970   1.083       .  S
C963        C964   1.210       .  T
C965        C966   1.211       .  T
C971        C972   1.402       .  A
C971        C976   1.403       .  A
C971        C979   1.447       .  S
C972        C973   1.401       .  A
C972        H981   1.084       .  S
C973        C974   1.402       .  A
C973        H982   1.083       .  S
C974        C975   1.403       .  A
C974        C977   1.447       .  S
C975        C976   1.403       .  A
C975        H983   1.084       .  S
C976        H984   1.083       .  S
C977        C978   1.210       .  T
C979        C980   1.210       .  T
C985        C986   1.402       .  A
C985        C990   1.401       .  A
C985        C993   1.440       .  S
C986        C987   1.398       .  A
C986        H995   1.083       .  S
C987        C988   1.400       .  A
C987        H996   1.084       .  S
C988        C989   1.403       .  A
C988        C991   1.441       .  S
C989        C990   1.400       .  A
C989        H997   1.083       .  S
C990        H998   1.084       .  S
C991        C992   1.206       .  T
C993        C994   1.206       .  T
C999       C1000   1.404       .  A
C999       C1004   1.402       .  A
C999       C1007   1.449       .  S
C1000      C1001   1.405       .  A
C1000      H1009   1.083       .  S
C1001      C1002   1.404       .  A
C1001      H1010   1.083       .  S
C1002      C1003   1.402       .  A
C1002      C1005   1.448       .  S
C1003      C1004   1.400       .  A
C1003      H1011   1.083       .  S
C1004      H1012   1.084       .  S
C1005      C1006   1.211       .  T
C1007      C1008   1.212       .  T
C1013      C1014   1.403       .  A
C1013      C1018   1.402       .  A
C1013      C1021   1.448       .  S
C1014      C1015   1.404       .  A
C1014      H1023   1.084       .  S
C1015      C1016   1.403       .  A
C1015      H1024   1.083   1_455  S
C1016      C1017   1.402       .  A
C1016      C1019   1.448       .  S
C1017      C1018   1.401       .  A
C1017      H1025   1.084       .  S
C1018      H1026   1.083       .  S
C1019      C1020   1.211       .  T
C1021      C1022   1.211       .  T
C1027      C1028   1.402       .  A
C1027      C1032   1.402       .  A
C1027      C1035   1.443       .  S
C1028      C1029   1.400       .  A
C1028      H1037   1.083   1_565  S
C1029      C1030   1.401       .  A
C1029      H1038   1.084       .  S
C1030      C1031   1.403       .  A
C1030      C1033   1.444       .  S
C1031      C1032   1.401       .  A
C1031      H1039   1.083       .  S
C1032      H1040   1.084       .  S
C1033      C1034   1.208       .  T
C1035      C1036   1.208       .  T
C1041      C1042   1.403       .  A
C1041      C1046   1.402       .  A
C1041      C1049   1.447       .  S
C1042      C1043   1.404       .  A
C1042      H1051   1.083       .  S
C1043      C1044   1.404       .  A
C1043      H1052   1.083       .  S
C1044      C1045   1.402       .  A
C1044      C1047   1.448       .  S
C1045      C1046   1.400       .  A
C1045      H1053   1.083       .  S
C1046      H1054   1.084       .  S
C1047      C1048   1.211       .  T
C1049      C1050   1.210       .  T
C1055      C1056   1.403       .  A
C1055      C1060   1.401       .  A
C1055      C1063   1.442       .  S
C1056      C1057   1.400       .  A
C1056      H1065   1.083       .  S
C1057      C1058   1.401       .  A
C1057      H1066   1.084       .  S
C1058      C1059   1.402       .  A
C1058      C1061   1.441       .  S
C1059      C1060   1.400       .  A
C1059      H1067   1.083       .  S
C1060      H1068   1.083       .  S
C1061      C1062   1.207       .  T
C1063      C1064   1.207       .  T
C1069      C1070   1.401       .  A
C1069      C1074   1.403       .  A
C1069      C1077   1.444       .  S
C1070      C1071   1.400       .  A
C1070      H1079   1.083       .  S
C1071      C1072   1.402       .  A
C1071      H1080   1.084       .  S
C1072      C1073   1.402   1_655  A
C1072      C1075   1.444       .  S
C1073      C1074   1.402   1_455  A
C1073      H1081   1.083       .  S
C1074      H1082   1.084   1_655  S
C1075      C1076   1.208       .  T
C1077      C1078   1.209       .  T
C1083      C1084   1.401       .  A
C1083      C1088   1.402       .  A
C1083      C1091   1.443       .  S
C1084      C1085   1.400       .  A
C1084      H1093   1.083       .  S
C1085      C1086   1.402       .  A
C1085      H1094   1.084       .  S
C1086      C1087   1.401       .  A
C1086      C1089   1.443       .  S
C1087      C1088   1.400       .  A
C1087      H1095   1.083       .  S
C1088      H1096   1.084       .  S
C1089      C1090   1.207       .  T
C1091      C1092   1.208       .  T
C1097      C1098   1.402       .  A
C1097      C1102   1.402       .  A
C1097      C1105   1.443       .  S
C1098      C1099   1.398       .  A
C1098      H1107   1.084       .  S
C1099      C1100   1.400       .  A
C1099      H1108   1.083       .  S
C1100      C1101   1.404       .  A
C1100      C1103   1.444       .  S
C1101      C1102   1.403       .  A
C1101      H1109   1.084       .  S
C1102      H1110   1.083       .  S
C1103      C1104   1.209       .  T
C1105      C1106   1.208       .  T
C1111      C1112   1.403       .  A
C1111      C1116   1.402       .  A
C1111      C1119   1.447       .  S
C1112      C1113   1.402       .  A
C1112      H1121   1.083       .  S
C1113      C1114   1.402       .  A
C1113      H1122   1.083   1_565  S
C1114      C1115   1.403       .  A
C1114      C1117   1.447       .  S
C1115      C1116   1.401       .  A
C1115      H1123   1.084       .  S
C1116      H1124   1.083       .  S
C1117      C1118   1.210       .  T
C1119      C1120   1.210       .  T
C1125      C1126   1.403       .  A
C1125      C1130   1.402       .  A
C1125      C1133   1.445       .  S
C1126      C1127   1.402       .  A
C1126      H1135   1.083       .  S
C1127      C1128   1.402       .  A
C1127      H1136   1.083       .  S
C1128      C1129   1.402       .  A
C1128      C1131   1.446       .  S
C1129      C1130   1.400       .  A
C1129      H1137   1.083       .  S
C1130      H1138   1.084       .  S
C1131      C1132   1.210       .  T
C1133      C1134   1.209       .  T
C1139      C1140   1.402       .  A
C1139      C1144   1.403       .  A
C1139      C1147   1.446       .  S
C1140      C1141   1.402       .  A
C1140      H1149   1.084       .  S
C1141      C1142   1.403       .  A
C1141      H1150   1.083       .  S
C1142      C1143   1.402       .  A
C1142      C1145   1.446       .  S
C1143      C1144   1.401       .  A
C1143      H1151   1.084       .  S
C1144      H1152   1.083       .  S
C1145      C1146   1.210       .  T
C1147      C1148   1.210       .  T
C1153      C1154   1.404       .  A
C1153      C1158   1.402       .  A
C1153      C1161   1.448       .  S
C1154      C1155   1.406       .  A
C1154      H1163   1.083       .  S
C1155      C1156   1.405       .  A
C1155      H1164   1.083       .  S
C1156      C1157   1.401       .  A
C1156      C1159   1.448       .  S
C1157      C1158   1.398       .  A
C1157      H1165   1.084       .  S
C1158      H1166   1.084       .  S
C1159      C1160   1.211       .  T
C1161      C1162   1.210       .  T
C1167      C1168   1.403       .  A
C1167      C1172   1.404       .  A
C1167      C1175   1.450       .  S
C1168      C1169   1.400       .  A
C1168      H1177   1.084       .  S
C1169      C1170   1.402       .  A
C1169      H1178   1.084       .  S
C1170      C1171   1.404   1_565  A
C1170      C1173   1.450   1_565  S
C1171      C1172   1.406   1_545  A
C1171      H1179   1.083       .  S
C1172      H1180   1.083   1_565  S
C1173      C1174   1.212       .  T
C1175      C1176   1.212       .  T
C1181      C1182   1.402       .  A
C1181      C1186   1.404       .  A
C1181      C1189   1.447       .  S
C1182      C1183   1.401       .  A
C1182      H1191   1.083       .  S
C1183      C1184   1.403       .  A
C1183      H1192   1.084       .  S
C1184      C1185   1.402       .  A
C1184      C1187   1.447       .  S
C1185      C1186   1.403       .  A
C1185      H1193   1.083       .  S
C1186      H1194   1.083       .  S
C1187      C1188   1.210       .  T
C1189      C1190   1.211       .  T
C1195      C1196   1.402       .  A
C1195      C1200   1.402       .  A
C1195      C1203   1.443       .  S
C1196      C1197   1.399       .  A
C1196      H1205   1.084       .  S
C1197      C1198   1.401       .  A
C1197      H1206   1.083       .  S
C1198      C1199   1.403       .  A
C1198      C1201   1.443       .  S
C1199      C1200   1.402       .  A
C1199      H1207   1.083       .  S
C1200      H1208   1.083       .  S
C1201      C1202   1.208       .  T
C1203      C1204   1.208       .  T
C1209      C1210   1.403       .  A
C1209      C1214   1.403       .  A
C1209      C1217   1.447       .  S
C1210      C1211   1.401       .  A
C1210      H1219   1.084       .  S
C1211      C1212   1.402       .  A
C1211      H1220   1.084       .  S
C1212      C1213   1.403       .  A
C1212      C1215   1.446       .  S
C1213      C1214   1.403       .  A
C1213      H1221   1.083       .  S
C1214      H1222   1.083       .  S
C1215      C1216   1.209       .  T
C1217      C1218   1.211       .  T
C1223      C1224   1.403       .  A
C1223      C1228   1.402       .  A
C1223      C1231   1.445       .  S
C1224      C1225   1.401       .  A
C1224      H1233   1.083       .  S
C1225      C1226   1.401       .  A
C1225      H1234   1.083       .  S
C1226      C1227   1.403       .  A
C1226      C1229   1.445       .  S
C1227      C1228   1.402       .  A
C1227      H1235   1.083       .  S
C1228      H1236   1.083       .  S
C1229      C1230   1.209       .  T
C1231      C1232   1.209       .  T
C1237      C1238   1.403       .  A
C1237      C1242   1.403       .  A
C1237      C1245   1.448       .  S
C1238      C1239   1.403       .  A
C1238      H1247   1.083       .  S
C1239      C1240   1.404       .  A
C1239      H1248   1.084       .  S
C1240      C1241   1.402       .  A
C1240      C1243   1.448       .  S
C1241      C1242   1.402       .  A
C1241      H1249   1.083       .  S
C1242      H1250   1.084       .  S
C1243      C1244   1.211       .  T
C1245      C1246   1.211       .  T
C1251      C1252   1.401       .  A
C1251      C1256   1.402       .  A
C1251      C1259   1.440       .  S
C1252      C1253   1.400       .  A
C1252      H1261   1.084       .  S
C1253      C1254   1.402       .  A
C1253      H1262   1.083       .  S
C1254      C1255   1.401       .  A
C1254      C1257   1.440       .  S
C1255      C1256   1.399       .  A
C1255      H1263   1.084       .  S
C1256      H1264   1.083       .  S
C1257      C1258   1.206       .  T
C1259      C1260   1.206       .  T
C1265      C1266   1.404       .  A
C1265      C1270   1.403       .  A
C1265      C1273   1.450       .  S
C1266      C1267   1.404       .  A
C1266      H1275   1.083       .  S
C1267      C1268   1.403       .  A
C1267      H1276   1.083       .  S
C1268      C1269   1.403       .  A
C1268      C1271   1.450       .  S
C1269      C1270   1.401       .  A
C1269      H1277   1.084       .  S
C1270      H1278   1.083       .  S
C1271      C1272   1.212       .  T
C1273      C1274   1.211       .  T
C1279      C1280   1.403       .  A
C1279      C1284   1.403       .  A
C1279      C1287   1.449       .  S
C1280      C1281   1.403       .  A
C1280      H1289   1.084       .  S
C1281      C1282   1.403       .  A
C1281      H1290   1.083       .  S
C1282      C1283   1.403       .  A
C1282      C1285   1.449       .  S
C1283      C1284   1.403       .  A
C1283      H1291   1.083       .  S
C1284      H1292   1.083       .  S
C1285      C1286   1.212       .  T
C1287      C1288   1.212       .  T
C1293      C1294   1.403       .  A
C1293      C1298   1.401       .  A
C1293      C1301   1.444       .  S
C1294      C1295   1.403       .  A
C1294      H1303   1.083       .  S
C1295      C1296   1.404       .  A
C1295      H1304   1.083       .  S
C1296      C1297   1.401       .  A
C1296      C1299   1.444       .  S
C1297      C1298   1.398       .  A
C1297      H1305   1.084       .  S
C1298      H1306   1.084       .  S
C1299      C1300   1.208       .  T
C1301      C1302   1.208       .  T
C1307      C1308   1.403       .  A
C1307      C1312   1.403       .  A
C1307      C1315   1.447       .  S
C1308      C1309   1.401       .  A
C1308      H1317   1.083       .  S
C1309      C1310   1.402   1_556  A
C1309      H1318   1.083   1_556  S
C1310      C1311   1.404   1_554  A
C1310      C1313   1.448       .  S
C1311      C1312   1.403       .  A
C1311      H1319   1.083   1_556  S
C1312      H1320   1.084       .  S
C1313      C1314   1.211       .  T
C1315      C1316   1.210       .  T
C1321      C1322   1.403       .  A
C1321      C1326   1.401       .  A
C1321      C1329   1.441       .  S
C1322      C1323   1.400       .  A
C1322      H1331   1.083       .  S
C1323      C1324   1.401       .  A
C1323      H1332   1.083       .  S
C1324      C1325   1.402       .  A
C1324      C1327   1.441       .  S
C1325      C1326   1.399       .  A
C1325      H1333   1.084       .  S
C1326      H1334   1.083       .  S
C1327      C1328   1.206       .  T
C1329      C1330   1.206       .  T
C1335      C1336   1.402       .  A
C1335      C1340   1.403       .  A
C1335      C1343   1.446       .  S
C1336      C1337   1.400       .  A
C1336      H1345   1.084       .  S
C1337      C1338   1.402       .  A
C1337      H1346   1.083       .  S
C1338      C1339   1.402       .  A
C1338      C1341   1.445       .  S
C1339      C1340   1.402       .  A
C1339      H1347   1.084       .  S
C1340      H1348   1.083       .  S
C1341      C1342   1.208       .  T
C1343      C1344   1.210       .  T
C1349      C1350   1.402       .  A
C1349      C1354   1.402       .  A
C1349      C1357   1.443       .  S
C1350      C1351   1.400       .  A
C1350      H1359   1.084       .  S
C1351      C1352   1.401       .  A
C1351      H1360   1.083       .  S
C1352      C1353   1.403       .  A
C1352      C1355   1.443       .  S
C1353      C1354   1.401       .  A
C1353      H1361   1.084       .  S
C1354      H1362   1.083       .  S
C1355      C1356   1.208       .  T
C1357      C1358   1.207       .  T
C1363      C1364   1.403       .  A
C1363      C1368   1.403       .  A
C1363      C1371   1.447       .  S
C1364      C1365   1.403       .  A
C1364      H1373   1.083       .  S
C1365      C1366   1.404       .  A
C1365      H1374   1.084       .  S
C1366      C1367   1.402       .  A
C1366      C1369   1.448       .  S
C1367      C1368   1.401       .  A
C1367      H1375   1.083       .  S
C1368      H1376   1.084       .  S
C1369      C1370   1.211       .  T
C1371      C1372   1.210       .  T
C1377      C1378   1.403       .  A
C1377      C1382   1.402       .  A
C1377      C1385   1.446       .  S
C1378      C1379   1.401       .  A
C1378      H1387   1.083       .  S
C1379      C1380   1.401       .  A
C1379      H1388   1.084       .  S
C1380      C1381   1.403       .  A
C1380      C1383   1.446   1_556  S
C1381      C1382   1.402       .  A
C1381      H1389   1.083       .  S
C1382      H1390   1.084       .  S
C1383      C1384   1.210       .  T
C1385      C1386   1.210       .  T
C1391      C1392   1.402       .  A
C1391      C1396   1.402       .  A
C1391      C1399   1.444       .  S
C1392      C1393   1.401       .  A
C1392      H1401   1.083       .  S
C1393      C1394   1.403       .  A
C1393      H1402   1.083       .  S
C1394      C1395   1.401       .  A
C1394      C1397   1.444       .  S
C1395      C1396   1.400       .  A
C1395      H1403   1.083       .  S
C1396      H1404   1.083       .  S
C1397      C1398   1.208       .  T
C1399      C1400   1.208       .  T
C1405      C1406   1.403       .  A
C1405      C1410   1.402       .  A
C1405      C1413   1.448       .  S
C1406      C1407   1.403       .  A
C1406      H1415   1.083       .  S
C1407      C1408   1.403       .  A
C1407      H1416   1.083       .  S
C1408      C1409   1.403       .  A
C1408      C1411   1.449       .  S
C1409      C1410   1.401       .  A
C1409      H1417   1.083       .  S
C1410      H1418   1.083       .  S
C1411      C1412   1.211       .  T
C1413      C1414   1.210       .  T
C1419      C1420   1.403       .  A
C1419      C1424   1.402   1_455  A
C1419      C1427   1.447       .  S
C1420      C1421   1.402       .  A
C1420      H1429   1.083       .  S
C1421      C1422   1.402       .  A
C1421      H1430   1.084       .  S
C1422      C1423   1.403   1_455  A
C1422      C1425   1.447       .  S
C1423      C1424   1.402       .  A
C1423      H1431   1.083       .  S
C1424      H1432   1.084       .  S
C1425      C1426   1.211       .  T
C1427      C1428   1.210       .  T
C1433      C1434   1.404   1_655  A
C1433      C1438   1.402       .  A
C1433      C1441   1.447       .  S
C1434      C1435   1.403       .  A
C1434      H1443   1.083       .  S
C1435      C1436   1.402   1_455  A
C1435      H1444   1.084       .  S
C1436      C1437   1.403       .  A
C1436      C1439   1.446       .  S
C1437      C1438   1.401       .  A
C1437      H1445   1.083       .  S
C1438      H1446   1.084       .  S
C1439      C1440   1.210       .  T
C1441      C1442   1.210       .  T
C1447      C1448   1.402       .  A
C1447      C1452   1.402       .  A
C1447      C1455   1.444       .  S
C1448      C1449   1.399       .  A
C1448      H1457   1.084       .  S
C1449      C1450   1.402       .  A
C1449      H1458   1.083       .  S
C1450      C1451   1.403       .  A
C1450      C1453   1.444       .  S
C1451      C1452   1.402       .  A
C1451      H1459   1.084       .  S
C1452      H1460   1.083       .  S
C1453      C1454   1.208       .  T
C1455      C1456   1.209       .  T
C1461      C1462   1.403       .  A
C1461      C1466   1.403       .  A
C1461      C1469   1.450       .  S
C1462      C1463   1.402       .  A
C1462      H1471   1.084       .  S
C1463      C1464   1.403       .  A
C1463      H1472   1.083       .  S
C1464      C1465   1.404       .  A
C1464      C1467   1.450       .  S
C1465      C1466   1.404       .  A
C1465      H1473   1.083       .  S
C1466      H1474   1.083       .  S
C1467      C1468   1.211       .  T
C1469      C1470   1.212       .  T
C1475      C1476   1.402       .  A
C1475      C1480   1.404       .  A
C1475      C1483   1.449       .  S
C1476      C1477   1.403       .  A
C1476      H1485   1.084       .  S
C1477      C1478   1.404       .  A
C1477      H1486   1.083       .  S
C1478      C1479   1.402       .  A
C1478      C1481   1.449       .  S
C1479      C1480   1.403       .  A
C1479      H1487   1.084       .  S
C1480      H1488   1.083       .  S
C1481      C1482   1.212       .  T
C1483      C1484   1.212       .  T
C1489      C1490   1.401       .  A
C1489      C1494   1.403       .  A
C1489      C1497   1.442       .  S
C1490      C1491   1.398       .  A
C1490      H1499   1.084       .  S
C1491      C1492   1.402       .  A
C1491      H1500   1.083       .  S
C1492      C1493   1.402       .  A
C1492      C1495   1.442       .  S
C1493      C1494   1.402       .  A
C1493      H1501   1.083       .  S
C1494      H1502   1.083       .  S
C1495      C1496   1.207       .  T
C1497      C1498   1.207       .  T
C1503      C1504   1.403       .  A
C1503      C1508   1.402       .  A
C1503      C1511   1.448       .  S
C1504      C1505   1.404       .  A
C1504      H1513   1.083       .  S
C1505      C1506   1.404       .  A
C1505      H1514   1.083       .  S
C1506      C1507   1.401       .  A
C1506      C1509   1.447       .  S
C1507      C1508   1.400       .  A
C1507      H1515   1.084       .  S
C1508      H1516   1.083       .  S
C1509      C1510   1.210       .  T
C1511      C1512   1.211       .  T
C1517      C1518   1.403       .  A
C1517      C1522   1.401       .  A
C1517      C1525   1.445       .  S
C1518      C1519   1.402       .  A
C1518      H1527   1.083       .  S
C1519      C1520   1.402       .  A
C1519      H1528   1.084       .  S
C1520      C1521   1.403       .  A
C1520      C1523   1.445       .  S
C1521      C1522   1.401       .  A
C1521      H1529   1.083       .  S
C1522      H1530   1.084       .  S
C1523      C1524   1.209       .  T
C1525      C1526   1.209       .  T
C1531      C1532   1.403       .  A
C1531      C1536   1.403       .  A
C1531      C1539   1.448       .  S
C1532      C1533   1.402       .  A
C1532      H1541   1.084       .  S
C1533      C1534   1.402       .  A
C1533      H1542   1.083       .  S
C1534      C1535   1.403       .  A
C1534      C1537   1.448       .  S
C1535      C1536   1.402       .  A
C1535      H1543   1.084       .  S
C1536      H1544   1.083       .  S
C1537      C1538   1.211       .  T
C1539      C1540   1.211       .  T
C1545      C1546   1.403       .  A
C1545      C1550   1.401       .  A
C1545      C1553   1.440       .  S
C1546      C1547   1.401       .  A
C1546      H1555   1.083       .  S
C1547      C1548   1.402       .  A
C1547      H1556   1.083       .  S
C1548      C1549   1.401       .  A
C1548      C1551   1.441       .  S
C1549      C1550   1.398       .  A
C1549      H1557   1.084   1_565  S
C1550      H1558   1.084       .  S
C1551      C1552   1.206       .  T
C1553      C1554   1.206       .  T
C1559      C1560   1.401       .  A
C1559      C1564   1.403       .  A
C1559      C1567   1.445       .  S
C1560      C1561   1.400       .  A
C1560      H1569   1.084       .  S
C1561      C1562   1.403       .  A
C1561      H1570   1.083       .  S
C1562      C1563   1.402       .  A
C1562      C1565   1.444       .  S
C1563      C1564   1.401       .  A
C1563      H1571   1.084       .  S
C1564      H1572   1.083       .  S
C1565      C1566   1.208       .  T
C1567      C1568   1.209       .  T
C1573      C1574   1.403       .  A
C1573      C1578   1.401       .  A
C1573      C1581   1.444       .  S
C1574      C1575   1.403       .  A
C1574      H1583   1.083       .  S
C1575      C1576   1.403       .  A
C1575      H1584   1.083       .  S
C1576      C1577   1.401       .  A
C1576      C1579   1.443       .  S
C1577      C1578   1.398       .  A
C1577      H1585   1.083       .  S
C1578      H1586   1.084       .  S
C1579      C1580   1.208       .  T
C1581      C1582   1.208       .  T
C1587      C1588   1.403       .  A
C1587      C1592   1.403       .  A
C1587      C1595   1.450       .  S
C1588      C1589   1.404       .  A
C1588      H1597   1.084       .  S
C1589      C1590   1.404       .  A
C1589      H1598   1.083       .  S
C1590      C1591   1.402       .  A
C1590      C1593   1.449       .  S
C1591      C1592   1.402       .  A
C1591      H1599   1.084       .  S
C1592      H1600   1.083       .  S
C1593      C1594   1.211       .  T
C1595      C1596   1.212       .  T
C1601      C1602   1.402       .  A
C1601      C1606   1.402       .  A
C1601      C1609   1.444       .  S
C1602      C1603   1.400       .  A
C1602      H1611   1.083       .  S
C1603      C1604   1.401       .  A
C1603      H1612   1.084       .  S
C1604      C1605   1.403       .  A
C1604      C1607   1.444       .  S
C1605      C1606   1.401       .  A
C1605      H1613   1.083       .  S
C1606      H1614   1.083       .  S
C1607      C1608   1.208       .  T
C1609      C1610   1.209       .  T
C1615      C1616   1.404       .  A
C1615      C1620   1.402       .  A
C1615      C1623   1.449       .  S
C1616      C1617   1.404       .  A
C1616      H1625   1.083       .  S
C1617      C1618   1.403       .  A
C1617      H1626   1.084       .  S
C1618      C1619   1.403       .  A
C1618      C1621   1.449       .  S
C1619      C1620   1.401       .  A
C1619      H1627   1.083       .  S
C1620      H1628   1.084       .  S
C1621      C1622   1.211       .  T
C1623      C1624   1.212       .  T
C1629      C1630   1.401       .  A
C1629      C1634   1.402       .  A
C1629      C1637   1.441       .  S
C1630      C1631   1.400       .  A
C1630      H1639   1.083       .  S
C1631      C1632   1.403       .  A
C1631      H1640   1.084       .  S
C1632      C1633   1.401       .  A
C1632      C1635   1.442       .  S
C1633      C1634   1.399       .  A
C1633      H1641   1.083       .  S
C1634      H1642   1.084       .  S
C1635      C1636   1.207       .  T
C1637      C1638   1.207       .  T
C1643      C1644   1.403       .  A
C1643      C1648   1.401       .  A
C1643      C1651   1.442       .  S
C1644      C1645   1.402       .  A
C1644      H1653   1.083       .  S
C1645      C1646   1.402       .  A
C1645      H1654   1.083       .  S
C1646      C1647   1.401       .  A
C1646      C1649   1.442       .  S
C1647      C1648   1.398       .  A
C1647      H1655   1.084       .  S
C1648      H1656   1.083       .  S
C1649      C1650   1.207       .  T
C1651      C1652   1.207       .  T
C1657      C1658   1.402       .  A
C1657      C1662   1.404       .  A
C1657      C1665   1.448       .  S
C1658      C1659   1.400       .  A
C1658      H1667   1.083       .  S
C1659      C1660   1.402       .  A
C1659      H1668   1.084       .  S
C1660      C1661   1.403       .  A
C1660      C1663   1.448       .  S
C1661      C1662   1.404       .  A
C1661      H1669   1.083       .  S
C1662      H1670   1.084       .  S
C1663      C1664   1.211       .  T
C1665      C1666   1.210       .  T
C1671      C1672   1.403       .  A
C1671      C1676   1.402       .  A
C1671      C1679   1.446       .  S
C1672      C1673   1.401       .  A
C1672      H1681   1.083       .  S
C1673      C1674   1.402       .  A
C1673      H1682   1.084       .  S
C1674      C1675   1.403       .  A
C1674      C1677   1.446       .  S
C1675      C1676   1.402       .  A
C1675      H1683   1.083       .  S
C1676      H1684   1.084       .  S
C1677      C1678   1.210       .  T
C1679      C1680   1.209       .  T
C1685      C1686   1.403       .  A
C1685      C1690   1.400       .  A
C1685      C1693   1.442       .  S
C1686      C1687   1.401       .  A
C1686      H1695   1.083       .  S
C1687      C1688   1.402       .  A
C1687      H1696   1.084       .  S
C1688      C1689   1.402       .  A
C1688      C1691   1.441       .  S
C1689      C1690   1.398       .  A
C1689      H1697   1.083       .  S
C1690      H1698   1.083       .  S
C1691      C1692   1.206       .  T
C1693      C1694   1.207       .  T
C1699      C1700   1.402       .  A
C1699      C1704   1.402       .  A
C1699      C1707   1.444       .  S
C1700      C1701   1.400       .  A
C1700      H1709   1.084       .  S
C1701      C1702   1.402       .  A
C1701      H1710   1.083       .  S
C1702      C1703   1.402       .  A
C1702      C1705   1.445       .  S
C1703      C1704   1.402       .  A
C1703      H1711   1.084       .  S
C1704      H1712   1.083       .  S
C1705      C1706   1.209       .  T
C1707      C1708   1.208       .  T
C1713      C1714   1.402       .  A
C1713      C1718   1.401       .  A
C1713      C1721   1.440       .  S
C1714      C1715   1.400       .  A
C1714      H1723   1.083       .  S
C1715      C1716   1.401       .  A
C1715      H1724   1.083       .  S
C1716      C1717   1.402       .  A
C1716      C1719   1.442       .  S
C1717      C1718   1.399       .  A
C1717      H1725   1.083       .  S
C1718      H1726   1.084       .  S
C1719      C1720   1.207       .  T
C1721      C1722   1.206       .  T
C1727      C1728   1.403       .  A
C1727      C1732   1.402       .  A
C1727      C1735   1.448   1_556  S
C1728      C1729   1.403       .  A
C1728      H1737   1.083       .  S
C1729      C1730   1.403       .  A
C1729      H1738   1.084       .  S
C1730      C1731   1.403       .  A
C1730      C1733   1.448       .  S
C1731      C1732   1.402       .  A
C1731      H1739   1.083       .  S
C1732      H1740   1.084       .  S
C1733      C1734   1.211       .  T
C1735      C1736   1.211       .  T
C1741      C1742   1.401       .  A
C1741      C1746   1.401       .  A
C1741      C1749   1.439       .  S
C1742      C1743   1.398       .  A
C1742      H1751   1.084       .  S
C1743      C1744   1.400       .  A
C1743      H1752   1.083       .  S
C1744      C1745   1.402       .  A
C1744      C1747   1.439       .  S
C1745      C1746   1.400       .  A
C1745      H1753   1.083       .  S
C1746      H1754   1.083       .  S
C1747      C1748   1.205       .  T
C1749      C1750   1.206       .  T
C1755      C1756   1.402       .  A
C1755      C1760   1.403       .  A
C1755      C1763   1.445       .  S
C1756      C1757   1.401       .  A
C1756      H1765   1.083       .  S
C1757      C1758   1.403       .  A
C1757      H1766   1.083       .  S
C1758      C1759   1.402       .  A
C1758      C1761   1.446       .  S
C1759      C1760   1.401       .  A
C1759      H1767   1.083       .  S
C1760      H1768   1.083       .  S
C1761      C1762   1.210       .  T
C1763      C1764   1.209       .  T
C1769      C1770   1.403       .  A
C1769      C1774   1.401       .  A
C1769      C1777   1.442       .  S
C1770      C1771   1.400       .  A
C1770      H1779   1.083       .  S
C1771      C1772   1.401       .  A
C1771      H1780   1.084       .  S
C1772      C1773   1.402       .  A
C1772      C1775   1.443       .  S
C1773      C1774   1.400       .  A
C1773      H1781   1.083       .  S
C1774      H1782   1.084       .  S
C1775      C1776   1.208       .  T
C1777      C1778   1.207       .  T
C1783      C1784   1.403       .  A
C1783      C1788   1.402       .  A
C1783      C1791   1.446       .  S
C1784      C1785   1.401       .  A
C1784      H1793   1.083       .  S
C1785      C1786   1.402       .  A
C1785      H1794   1.084       .  S
C1786      C1787   1.403       .  A
C1786      C1789   1.446       .  S
C1787      C1788   1.402       .  A
C1787      H1795   1.083       .  S
C1788      H1796   1.084       .  S
C1789      C1790   1.210       .  T
C1791      C1792   1.210       .  T
C1797      C1798   1.402       .  A
C1797      C1802   1.403       .  A
C1797      C1805   1.446       .  S
C1798      C1799   1.402       .  A
C1798      H1807   1.083       .  S
C1799      C1800   1.403       .  A
C1799      H1808   1.084       .  S
C1800      C1801   1.402       .  A
C1800      C1803   1.445       .  S
C1801      C1802   1.401       .  A
C1801      H1809   1.083       .  S
C1802      H1810   1.083       .  S
C1803      C1804   1.209       .  T
C1805      C1806   1.210       .  T
C1811      C1812   1.402       .  A
C1811      C1816   1.403       .  A
C1811      C1819   1.446       .  S
C1812      C1813   1.403       .  A
C1812      H1821   1.083       .  S
C1813      C1814   1.404       .  A
C1813      H1822   1.083       .  S
C1814      C1815   1.401       .  A
C1814      C1817   1.446       .  S
C1815      C1816   1.400       .  A
C1815      H1823   1.083       .  S
C1816      H1824   1.084       .  S
C1817      C1818   1.210       .  T
C1819      C1820   1.210       .  T
C1825      C1826   1.402       .  A
C1825      C1830   1.402       .  A
C1825      C1833   1.444       .  S
C1826      C1827   1.402       .  A
C1826      H1835   1.083       .  S
C1827      C1828   1.403       .  A
C1827      H1836   1.083       .  S
C1828      C1829   1.401       .  A
C1828      C1831   1.445       .  S
C1829      C1830   1.399       .  A
C1829      H1837   1.084       .  S
C1830      H1838   1.083       .  S
C1831      C1832   1.209       .  T
C1833      C1834   1.208       .  T
C1839      C1840   1.404       .  A
C1839      C1844   1.401       .  A
C1839      C1847   1.446       .  S
C1840      C1841   1.404       .  A
C1840      H1849   1.083       .  S
C1841      C1842   1.403       .  A
C1841      H1850   1.083       .  S
C1842      C1843   1.402       .  A
C1842      C1845   1.446       .  S
C1843      C1844   1.399       .  A
C1843      H1851   1.083       .  S
C1844      H1852   1.084       .  S
C1845      C1846   1.209       .  T
C1847      C1848   1.209       .  T
C1853      C1854   1.401       .  A
C1853      C1858   1.403       .  A
C1853      C1861   1.444       .  S
C1854      C1855   1.400       .  A
C1854      H1863   1.083       .  S
C1855      C1856   1.403       .  A
C1855      H1864   1.083       .  S
C1856      C1857   1.402       .  A
C1856      C1859   1.444       .  S
C1857      C1858   1.401       .  A
C1857      H1865   1.083       .  S
C1858      H1866   1.083       .  S
C1859      C1860   1.208       .  T
C1861      C1862   1.209       .  T
C1867      C1868   1.402       .  A
C1867      C1872   1.403       .  A
C1867      C1875   1.447       .  S
C1868      C1869   1.403       .  A
C1868      H1877   1.084       .  S
C1869      C1870   1.403       .  A
C1869      H1878   1.083       .  S
C1870      C1871   1.402       .  A
C1870      C1873   1.447       .  S
C1871      C1872   1.401       .  A
C1871      H1879   1.084       .  S
C1872      H1880   1.083       .  S
C1873      C1874   1.210       .  T
C1875      C1876   1.210       .  T
C1881      C1882   1.402       .  A
C1881      C1886   1.403       .  A
C1881      C1889   1.444       .  S
C1882      C1883   1.401       .  A
C1882      H1891   1.083       .  S
C1883      C1884   1.403       .  A
C1883      H1892   1.083       .  S
C1884      C1885   1.401       .  A
C1884      C1887   1.444       .  S
C1885      C1886   1.400       .  A
C1885      H1893   1.084       .  S
C1886      H1894   1.084       .  S
C1887      C1888   1.208       .  T
C1889      C1890   1.208       .  T
C1895      C1896   1.404       .  A
C1895      C1900   1.401       .  A
C1895      C1903   1.445       .  S
C1896      C1897   1.403       .  A
C1896      H1905   1.084       .  S
C1897      C1898   1.403       .  A
C1897      H1906   1.083       .  S
C1898      C1899   1.402       .  A
C1898      C1901   1.445       .  S
C1899      C1900   1.399       .  A
C1899      H1907   1.084       .  S
C1900      H1908   1.083       .  S
C1901      C1902   1.209       .  T
C1903      C1904   1.209       .  T
C1909      C1910   1.401       .  A
C1909      C1914   1.403   1_565  A
C1909      C1917   1.444       .  S
C1910      C1911   1.400       .  A
C1910      H1919   1.084       .  S
C1911      C1912   1.402   1_565  A
C1911      H1920   1.083       .  S
C1912      C1913   1.402       .  A
C1912      C1915   1.444       .  S
C1913      C1914   1.402       .  A
C1913      H1921   1.083       .  S
C1914      H1922   1.083       .  S
C1915      C1916   1.209       .  T
C1917      C1918   1.208       .  T
C1923      C1924   1.402   1_554  A
C1923      C1928   1.404       .  A
C1923      C1931   1.447       .  S
C1924      C1925   1.401       .  A
C1924      H1933   1.084       .  S
C1925      C1926   1.403       .  A
C1925      H1934   1.083       .  S
C1926      C1927   1.402       .  A
C1926      C1929   1.446       .  S
C1927      C1928   1.402   1_556  A
C1927      H1935   1.084       .  S
C1928      H1936   1.083       .  S
C1929      C1930   1.210       .  T
C1931      C1932   1.210       .  T
C1937      C1938   1.400       .  A
C1937      C1942   1.403       .  A
C1937      C1945   1.441       .  S
C1938      C1939   1.398       .  A
C1938      H1947   1.083       .  S
C1939      C1940   1.402       .  A
C1939      H1948   1.084       .  S
C1940      C1941   1.401       .  A
C1940      C1943   1.440       .  S
C1941      C1942   1.401       .  A
C1941      H1949   1.083       .  S
C1942      H1950   1.083       .  S
C1943      C1944   1.206       .  T
C1945      C1946   1.207       .  T
C1951      C1952   1.403       .  A
C1951      C1956   1.401       .  A
C1951      C1959   1.443       .  S
C1952      C1953   1.401       .  A
C1952      H1961   1.084       .  S
C1953      C1954   1.402       .  A
C1953      H1962   1.083       .  S
C1954      C1955   1.402       .  A
C1954      C1957   1.442       .  S
C1955      C1956   1.400       .  A
C1955      H1963   1.084       .  S
C1956      H1964   1.083       .  S
C1957      C1958   1.208       .  T
C1959      C1960   1.208       .  T
C1965      C1966   1.402       .  A
C1965      C1970   1.402       .  A
C1965      C1973   1.443       .  S
C1966      C1967   1.399       .  A
C1966      H1975   1.083       .  S
C1967      C1968   1.401       .  A
C1967      H1976   1.084       .  S
C1968      C1969   1.402       .  A
C1968      C1971   1.442       .  S
C1969      C1970   1.401       .  A
C1969      H1977   1.083       .  S
C1970      H1978   1.084       .  S
C1971      C1972   1.207       .  T
C1973      C1974   1.208       .  T
C1979      C1980   1.401       .  A
C1979      C1984   1.403       .  A
C1979      C1987   1.444       .  S
C1980      C1981   1.399       .  A
C1980      H1989   1.083       .  S
C1981      C1982   1.402       .  A
C1981      H1990   1.084       .  S
C1982      C1983   1.402       .  A
C1982      C1985   1.443       .  S
C1983      C1984   1.402       .  A
C1983      H1991   1.083       .  S
C1984      H1992   1.083       .  S
C1985      C1986   1.208       .  T
C1987      C1988   1.209       .  T
C1993      C1994   1.403       .  A
C1993      C1998   1.402       .  A
C1993      C2001   1.447       .  S
C1994      C1995   1.402       .  A
C1994      H2003   1.084       .  S
C1995      C1996   1.402       .  A
C1995      H2004   1.083       .  S
C1996      C1997   1.403       .  A
C1996      C1999   1.447       .  S
C1997      C1998   1.402       .  A
C1997      H2005   1.083       .  S
C1998      H2006   1.083       .  S
C1999      C2000   1.209       .  T
C2001      C2002   1.210       .  T
C2007      C2008   1.403       .  A
C2007      C2012   1.403       .  A
C2007      C2015   1.448       .  S
C2008      C2009   1.402       .  A
C2008      H2017   1.084       .  S
C2009      C2010   1.402       .  A
C2009      H2018   1.083       .  S
C2010      C2011   1.404       .  A
C2010      C2013   1.447       .  S
C2011      C2012   1.403       .  A
C2011      H2019   1.084       .  S
C2012      H2020   1.083       .  S
C2013      C2014   1.211       .  T
C2015      C2016   1.211       .  T
C2021      C2022   1.403       .  A
C2021      C2026   1.401       .  A
C2021      C2029   1.444       .  S
C2022      C2023   1.401       .  A
C2022      H2031   1.084       .  S
C2023      C2024   1.402       .  A
C2023      H2032   1.083       .  S
C2024      C2025   1.403       .  A
C2024      C2027   1.444       .  S
C2025      C2026   1.401       .  A
C2025      H2033   1.083       .  S
C2026      H2034   1.083       .  S
C2027      C2028   1.208       .  T
C2029      C2030   1.208       .  T
C2035      C2036   1.403       .  A
C2035      C2040   1.403       .  A
C2035      C2043   1.447       .  S
C2036      C2037   1.401       .  A
C2036      H2045   1.083       .  S
C2037      C2038   1.402       .  A
C2037      H2046   1.083       .  S
C2038      C2039   1.403       .  A
C2038      C2041   1.447       .  S
C2039      C2040   1.403       .  A
C2039      H2047   1.083       .  S
C2040      H2048   1.083       .  S
C2041      C2042   1.210       .  T
C2043      C2044   1.210       .  T
C2049      C2050   1.402       .  A
C2049      C2054   1.403       .  A
C2049      C2057   1.448       .  S
C2050      C2051   1.402       .  A
C2050      H2059   1.083       .  S
C2051      C2052   1.404       .  A
C2051      H2060   1.084       .  S
C2052      C2053   1.402       .  A
C2052      C2055   1.448       .  S
C2053      C2054   1.402       .  A
C2053      H2061   1.083       .  S
C2054      H2062   1.084       .  S
C2055      C2056   1.210       .  T
C2057      C2058   1.211       .  T
C2063      C2064   1.404       .  A
C2063      C2068   1.402       .  A
C2063      C2071   1.448       .  S
C2064      C2065   1.403       .  A
C2064      H2073   1.084       .  S
C2065      C2066   1.403       .  A
C2065      H2074   1.083       .  S
C2066      C2067   1.403       .  A
C2066      C2069   1.448       .  S
C2067      C2068   1.402       .  A
C2067      H2075   1.083       .  S
C2068      H2076   1.083       .  S
C2069      C2070   1.211       .  T
C2071      C2072   1.211       .  T
C2077      C2078   1.400       .  A
C2077      C2082   1.402       .  A
C2077      C2085   1.440       .  S
C2078      C2079   1.398       .  A
C2078      H2087   1.083       .  S
C2079      C2080   1.402       .  A
C2079      H2088   1.084       .  S
C2080      C2081   1.401       .  A
C2080      C2083   1.439       .  S
C2081      C2082   1.400       .  A
C2081      H2089   1.083       .  S
C2082      H2090   1.083       .  S
C2083      C2084   1.205       .  T
C2085      C2086   1.206       .  T
C2091      C2092   1.402       .  A
C2091      C2096   1.403       .  A
C2091      C2099   1.447       .  S
C2092      C2093   1.401       .  A
C2092      H2101   1.084       .  S
C2093      C2094   1.403       .  A
C2093      H2102   1.083       .  S
C2094      C2095   1.402       .  A
C2094      C2097   1.445       .  S
C2095      C2096   1.402       .  A
C2095      H2103   1.084       .  S
C2096      H2104   1.083       .  S
C2097      C2098   1.209       .  T
C2099      C2100   1.210       .  T
C2105      C2106   1.403       .  A
C2105      C2110   1.400       .  A
C2105      C2113   1.441       .  S
C2106      C2107   1.401       .  A
C2106      H2115   1.084       .  S
C2107      C2108   1.401       .  A
C2107      H2116   1.083       .  S
C2108      C2109   1.402       .  A
C2108      C2111   1.441       .  S
C2109      C2110   1.398       .  A
C2109      H2117   1.084       .  S
C2110      H2118   1.083       .  S
C2111      C2112   1.206       .  T
C2113      C2114   1.207       .  T
C2119      C2120   1.402       .  A
C2119      C2124   1.401       .  A
C2119      C2127   1.442       .  S
C2120      C2121   1.400       .  A
C2120      H2129   1.083       .  S
C2121      C2122   1.401       .  A
C2121      H2130   1.083       .  S
C2122      C2123   1.403       .  A
C2122      C2125   1.441       .  S
C2123      C2124   1.400       .  A
C2123      H2131   1.083       .  S
C2124      H2132   1.083       .  S
C2125      C2126   1.207       .  T
C2127      C2128   1.207       .  T
C2133      C2134   1.401       .  A
C2133      C2138   1.403       .  A
C2133      C2141   1.443       .  S
C2134      C2135   1.398       .  A
C2134      H2143   1.084       .  S
C2135      C2136   1.401       .  A
C2135      H2144   1.083       .  S
C2136      C2137   1.403       .  A
C2136      C2139   1.442       .  S
C2137      C2138   1.403       .  A
C2137      H2145   1.083       .  S
C2138      H2146   1.083   1_455  S
C2139      C2140   1.207       .  T
C2141      C2142   1.208       .  T
C2147      C2148   1.402       .  A
C2147      C2152   1.403       .  A
C2147      C2155   1.445       .  S
C2148      C2149   1.400       .  A
C2148      H2157   1.083       .  S
C2149      C2150   1.402       .  A
C2149      H2158   1.084       .  S
C2150      C2151   1.402       .  A
C2150      C2153   1.445       .  S
C2151      C2152   1.402       .  A
C2151      H2159   1.083       .  S
C2152      H2160   1.083       .  S
C2153      C2154   1.209       .  T
C2155      C2156   1.209       .  T
