geometry optimzed in LAMMPS
_audit_creation_date              2020-11-30 
_audit_creation_method            'lammps2cif' 
_symmetry_space_group_name_H-M    'P1' 
_symmetry_Int_Tables_number       1 
_symmetry_cell_setting            triclinic 
loop_ 
_symmetry_equiv_pos_as_xyz 
  x,y,z 
_cell_length_a                    40.15603873 
_cell_length_b                    40.03638169690836 
_cell_length_c                    160.79687055216527 
_cell_angle_alpha                 89.70460280563375 
_cell_angle_beta                  90.34886064451769 
_cell_angle_gamma                 88.93844981814017 
loop_ 
_atom_site_label 
_atom_site_type_symbol 
_atom_site_fract_x 
_atom_site_fract_y 
_atom_site_fract_z 
_atom_site_charge 
C1          C  0.62969945  0.62082980  0.84097992    -0.01900
C2          C  0.38010387  0.60975719  0.84485818    -0.01900
C3          C  0.63934669  0.86643321  0.83780754    -0.01900
C4          C  0.38871545  0.86303252  0.83919632    -0.01900
C5          C  0.61576347  0.60803224  0.90375527    -0.01900
C6          C  0.36524084  0.62314432  0.90789667    -0.01900
C7          C  0.62635751  0.86593655  0.90032667    -0.01900
C8          C  0.37452582  0.87943289  0.90182173    -0.01900
In9        In  0.33557280  0.88622523  0.45077042     1.36900
C10         C  0.40162270  0.89053790  0.44909149     0.78200
O11         O  0.34146462  0.92290554  0.46124757    -0.60300
O12         O  0.30477298  0.88609245  0.46242831    -0.51200
C13         C  0.29673814  0.92232819  0.44013985     0.70900
O14         O  0.32286444  0.93291392  0.44347180    -0.46000
C15         C  0.33242129  0.81938536  0.44973389     0.75600
O16         O  0.38148458  0.89479785  0.44311343    -0.57900
O17         O  0.34504850  0.83720396  0.44413098    -0.48000
O18         O  0.38773547  0.88412116  0.45591680    -0.54300
C19         C  0.31949752  0.91013869  0.46577333     0.85700
O20         O  0.29017852  0.89282855  0.44225054    -0.56200
O21         O  0.32023243  0.83593959  0.45565967    -0.59500
In22       In  0.32192465  0.02173419  0.53946473     1.36900
C23         C  0.38835569  0.02299201  0.54073965     0.78200
O24         O  0.32595658  0.97918791  0.53038858    -0.60300
O25         O  0.29770348  0.02203997  0.52685553    -0.51200
C26         C  0.28322631  0.98678710  0.54963700     0.70900
O27         O  0.31424593  0.98202705  0.54911980    -0.46000
C28         C  0.31085787  0.08656411  0.54257936     0.75600
O29         O  0.37263537  0.03234630  0.53431937    -0.57900
O30         O  0.30900071  0.07414838  0.53541125    -0.48000
O31         O  0.36996758  0.01214329  0.54643214    -0.54300
C32         C  0.30887829  0.99369107  0.52478170     0.85700
O33         O  0.27188133  0.00907655  0.54475774    -0.56200
O34         O  0.31698569  0.06535156  0.54822051    -0.59500
In35       In  0.35486362  0.50051220  0.45438018     1.36900
C36         C  0.42077970  0.49590217  0.45145969     0.78200
O37         O  0.33320221  0.54557831  0.44751833    -0.60300
O38         O  0.35753726  0.55315258  0.45902500    -0.51200
C39         C  0.31572087  0.46241997  0.44475876     0.70900
O40         O  0.34517139  0.46957504  0.44290280    -0.46000
C41         C  0.34358695  0.48219288  0.47008400     0.75600
O42         O  0.40612278  0.47772051  0.45664234    -0.57900
O43         O  0.36050854  0.46460523  0.46510453    -0.48000
O44         O  0.40144423  0.51567309  0.44759497    -0.54300
C45         C  0.34277995  0.56637954  0.45286076     0.85700
O46         O  0.30630646  0.47468894  0.45155295    -0.56200
O47         O  0.33214978  0.50907430  0.46697179    -0.59500
In48       In  0.33546709  0.40292248  0.54725329     1.36900
C49         C  0.39895164  0.41399497  0.55109650     0.78200
O50         O  0.30272688  0.35868184  0.54516086    -0.60300
O51         O  0.34927308  0.35004214  0.55100596    -0.51200
C52         C  0.29514462  0.43630712  0.55776769     0.70900
O53         O  0.31141144  0.41034074  0.55982509    -0.46000
C54         C  0.33193590  0.42132765  0.53111906     0.75600
O55         O  0.38976383  0.39019195  0.54656688    -0.57900
O56         O  0.31243533  0.40089729  0.53439330    -0.48000
O57         O  0.37528945  0.43189845  0.55384217    -0.54300
C58         C  0.32302043  0.33743944  0.54817335     0.85700
O59         O  0.29917288  0.44471852  0.55028160    -0.56200
O60         O  0.35266704  0.43302672  0.53617208    -0.59500
In61       In  0.71795251  0.88836575  0.45356698     1.36900
C62         C  0.65281626  0.89373749  0.44959006     0.78200
O63         O  0.73411062  0.84081829  0.44712549    -0.60300
O64         O  0.73122709  0.83993736  0.46019944    -0.51200
C65         C  0.75814664  0.92147868  0.44331841     0.70900
O66         O  0.72705156  0.92021955  0.44221986    -0.46000
C67         C  0.72394966  0.91518134  0.46872912     0.75600
O68         O  0.66828490  0.91607851  0.45341000    -0.57900
O69         O  0.73624160  0.92801506  0.46229404    -0.48000
O70         O  0.67100374  0.86918353  0.44760462    -0.54300
C71         C  0.73690612  0.82355323  0.45367947     0.85700
O72         O  0.76859409  0.90501090  0.44954347    -0.56200
O73         O  0.70879459  0.88840378  0.46736815    -0.59500
In74       In  0.70454231  0.04114377  0.54159205     1.36900
C75         C  0.63931471  0.03343712  0.54423500     0.78200
O76         O  0.71256239  0.08787267  0.54912612    -0.60300
O77         O  0.71802909  0.09114491  0.53612126    -0.51200
C78         C  0.74236112  0.00683009  0.55264233     0.70900
O79         O  0.71094940  0.00621840  0.55261733    -0.46000
C80         C  0.71493319  0.01715634  0.52618796     0.75600
O81         O  0.65861036  0.00940720  0.54239656    -0.57900
O82         O  0.69067502  0.03610256  0.52799441    -0.48000
O83         O  0.65379994  0.06091257  0.54498587    -0.54300
C84         C  0.71816461  0.10642560  0.54295887     0.85700
O85         O  0.75413373  0.02546850  0.54708956    -0.56200
O86         O  0.73426718  0.01126766  0.53223369    -0.59500
In87       In  0.73882857  0.50577321  0.45234990     1.36900
C88         C  0.67266311  0.50122464  0.45043569     0.78200
O89         O  0.76520345  0.50897117  0.46479572    -0.60300
O90         O  0.72688308  0.47386243  0.46331970    -0.51200
C91         C  0.77729473  0.46921879  0.44192576     0.70900
O92         O  0.76740426  0.45838722  0.44882951    -0.46000
C93         C  0.74894424  0.57154659  0.45107551     0.75600
O94         O  0.68656258  0.51509904  0.45650804    -0.57900
O95         O  0.76878088  0.55195066  0.45489036    -0.48000
O96         O  0.69291993  0.48930011  0.44519506    -0.54300
C97         C  0.74712658  0.48745675  0.46821488     0.85700
O98         O  0.76724737  0.49854522  0.44036655    -0.56200
O99         O  0.72508293  0.55703140  0.44758988    -0.59500
In100      In  0.70598090  0.42574084  0.54546286     1.36900
C101        C  0.64302091  0.44311662  0.54928695     0.78200
O102        O  0.70759497  0.46160676  0.53452224    -0.60300
O103        O  0.72722177  0.41264629  0.53302892    -0.51200
C104        C  0.74790904  0.45737090  0.55573260     0.70900
O105        O  0.74313155  0.46569137  0.54825071    -0.46000
C106        C  0.71057704  0.35874897  0.54549672     0.75600
O107        O  0.65406970  0.44226470  0.54197860    -0.57900
O108        O  0.68347353  0.37477322  0.54461347    -0.48000
O109        O  0.66468206  0.43601902  0.55474356    -0.54300
C110        C  0.72083283  0.44054765  0.52967343     0.85700
O111        O  0.73131617  0.43250448  0.55794918    -0.56200
O112        O  0.73532916  0.37718452  0.54665286    -0.59500
In113      In  0.30890217  0.04889042  0.69847028     1.36900
C114        C  0.30947043  0.11543848  0.69742518     0.78200
O115        O  0.27671215  0.06026109  0.70945955    -0.60300
O116        O  0.30374342  0.01450723  0.70957931    -0.51200
C117        C  0.27172617  0.01476919  0.68759367     0.70900
O118        O  0.30277117  0.01086602  0.68831164    -0.46000
C119        C  0.37419432  0.03576008  0.69721899     0.75600
O120        O  0.29558010  0.09774698  0.69198697    -0.57900
O121        O  0.35695664  0.02681391  0.70334080    -0.48000
O122        O  0.32351873  0.09879714  0.70315111    -0.54300
C123        C  0.28441538  0.03409419  0.71345092     0.85700
O124        O  0.25977406  0.03654154  0.69240088    -0.56200
O125        O  0.35753666  0.05038866  0.69154123    -0.59500
In126      In  0.20385658  0.04437028  0.78967987     1.36900
C127        C  0.20365630  0.10928542  0.79405266     0.78200
O128        O  0.23539118  0.05926802  0.77876006    -0.60300
O129        O  0.21009754  0.01371386  0.77799115    -0.51200
C130        C  0.24239287  0.00337840  0.79909977     0.70900
O131        O  0.25269063  0.03013246  0.79594163    -0.46000
C132        C  0.13842306  0.03240696  0.79071337     0.75600
O133        O  0.21373199  0.08608542  0.79881708    -0.57900
O134        O  0.15361612  0.03514690  0.78391566    -0.48000
O135        O  0.19338505  0.09905165  0.78711617    -0.54300
C136        C  0.22871188  0.03421032  0.77438840     0.85700
O137        O  0.21250456  0.99747892  0.79730827    -0.56200
O138        O  0.15694269  0.03546386  0.79701224    -0.59500
In139      In  0.69157231  0.03843505  0.70056059     1.36900
C140        C  0.70138123  0.10439560  0.69941675     0.78200
O141        O  0.64359899  0.05454939  0.69430030    -0.60300
O142        O  0.64305386  0.01055231  0.70152978    -0.51200
C143        C  0.72799918  0.99903920  0.69042705     0.70900
O144        O  0.70247236  0.98929702  0.69419019    -0.46000
C145        C  0.71107156  0.02567677  0.71626555     0.75600
O146        O  0.70150579  0.08536329  0.69318185    -0.57900
O147        O  0.68170919  0.03424671  0.71430173    -0.48000
O148        O  0.69665894  0.08939650  0.70620414    -0.54300
C149        C  0.62638439  0.03142464  0.69724508     0.85700
O150        O  0.73460379  0.02917836  0.69179914    -0.56200
O151        O  0.73014463  0.02233906  0.71010873    -0.59500
In152      In  0.82081918  0.05204814  0.79047790     1.36900
C153        C  0.81116225  0.11727886  0.79331544     0.78200
O154        O  0.87148720  0.05890414  0.79641617    -0.60300
O155        O  0.86814970  0.02648135  0.78620592    -0.51200
C156        C  0.78327966  0.01592951  0.80087777     0.70900
O157        O  0.81152786  0.00626142  0.79838116    -0.46000
C158        C  0.80198650  0.04105848  0.77470721     0.75600
O159        O  0.82479548  0.09779201  0.79856266    -0.57900
O160        O  0.82083643  0.06445026  0.77680791    -0.48000
O161        O  0.80157811  0.10291268  0.78680183    -0.54300
C162        C  0.88681244  0.03984977  0.79149009     0.85700
O163        O  0.77434335  0.04412872  0.79806383    -0.56200
O164        O  0.79316620  0.02290166  0.78072065    -0.59500
In165      In  0.70210848  0.42209694  0.70308978     1.36900
C166        C  0.70950131  0.35673791  0.70020045     0.78200
O167        O  0.72203725  0.40392109  0.71543663    -0.60300
O168        O  0.71815939  0.45601520  0.71364045    -0.51200
C169        C  0.73678493  0.45724026  0.69175163     0.70900
O170        O  0.73797145  0.42589811  0.69231164    -0.46000
C171        C  0.63585623  0.43388397  0.70281483     0.75600
O172        O  0.68294486  0.37286422  0.69851578    -0.57900
O173        O  0.65364775  0.43492860  0.69638934    -0.48000
O174        O  0.73259738  0.37456130  0.70297205    -0.54300
C175        C  0.72627830  0.43235314  0.71849710     0.85700
O176        O  0.71793807  0.47065811  0.69705970    -0.56200
O177        O  0.65211391  0.42713040  0.70935780    -0.59500
In178      In  0.81979733  0.43486190  0.79450533     1.36900
C179        C  0.81654239  0.36862061  0.79707958     0.78200
O180        O  0.79076359  0.41853809  0.78332555    -0.60300
O181        O  0.81810241  0.46301390  0.78228219    -0.51200
C182        C  0.78305984  0.47431588  0.80466447     0.70900
O183        O  0.78622590  0.47958556  0.79698747    -0.46000
C184        C  0.88474568  0.44872923  0.79544646     0.75600
O185        O  0.79105877  0.38754014  0.79687576    -0.57900
O186        O  0.86994083  0.44109163  0.78883176    -0.48000
O187        O  0.84341021  0.38399609  0.79635522    -0.54300
C188        C  0.79995054  0.44206711  0.77867739     0.85700
O189        O  0.79888537  0.44868480  0.80717378    -0.56200
O190        O  0.86575732  0.45083664  0.80166067    -0.59500
In191      In  0.31841801  0.43101723  0.70575776     1.36900
C192        C  0.31117144  0.36605918  0.70269449     0.78200
O193        O  0.36850652  0.41865768  0.70036312    -0.60300
O194        O  0.36505952  0.45955668  0.70860196    -0.51200
C195        C  0.28157676  0.47110295  0.69561268     0.70900
O196        O  0.27189097  0.44341330  0.69832923    -0.46000
C197        C  0.30030168  0.43928850  0.72161937     0.75600
O198        O  0.31978590  0.38667868  0.69720199    -0.57900
O199        O  0.32903894  0.42931474  0.71956059    -0.48000
O200        O  0.30518622  0.37892820  0.70966389    -0.54300
C201        C  0.38371093  0.44119077  0.70419854     0.85700
O202        O  0.31030449  0.47844409  0.69812484    -0.56200
O203        O  0.28137295  0.44587329  0.71552355    -0.59500
In204      In  0.20056624  0.42485217  0.79720213     1.36900
C205        C  0.20291043  0.35907061  0.80023612     0.78200
O206        O  0.15185919  0.42471206  0.80388896    -0.60300
O207        O  0.15405853  0.45318347  0.79283400    -0.51200
C208        C  0.23844714  0.45931174  0.80803557     0.70900
O209        O  0.20820443  0.45326170  0.80919423    -0.46000
C210        C  0.21945474  0.43173041  0.78127469     0.75600
O211        O  0.22689971  0.37779574  0.80198911    -0.57900
O212        O  0.21702880  0.40392645  0.78490132    -0.48000
O213        O  0.17831899  0.37410733  0.79697020    -0.54300
C214        C  0.13612163  0.44258115  0.79867824     0.85700
O215        O  0.24934604  0.44768767  0.80129793    -0.56200
O216        O  0.21187460  0.45630899  0.78582595    -0.59500
C217        C  0.88113737  0.60463908  0.65467606    -0.01900
C218        C  0.12833705  0.60925004  0.65685580    -0.01900
C219        C  0.87628993  0.85442544  0.65272484    -0.01900
C220        C  0.12495318  0.86466264  0.65207936    -0.01900
C221        C  0.15850596  0.59685768  0.59353130    -0.01900
C222        C  0.13940782  0.84745659  0.58844476    -0.01900
C223        C  0.90721593  0.59734912  0.59057869    -0.01900
C224        C  0.88562954  0.85240175  0.58966530    -0.01900
In225      In  0.81154098  0.04256644  0.94911804     1.36900
C226        C  0.87775546  0.04208450  0.94828117     0.78200
O227        O  0.81569552  0.08978998  0.94139233    -0.60300
O228        O  0.78425415  0.09097191  0.95180817    -0.51200
C229        C  0.77396397  0.00366870  0.93925828     0.70900
O230        O  0.80313824  0.01202732  0.93751134    -0.46000
C231        C  0.80699750  0.01888431  0.96463056     0.75600
O232        O  0.85979854  0.02400210  0.94374592    -0.57900
O233        O  0.79058721  0.04394316  0.96201171    -0.48000
O234        O  0.86155164  0.06038046  0.95324223    -0.54300
C235        C  0.79721338  0.10728373  0.94600051     0.85700
O236        O  0.76370000  0.01579688  0.94599579    -0.56200
O237        O  0.82501758  0.00505968  0.95920102    -0.59500
In238      In  0.81180408  0.91957570  0.04027981     1.36900
C239        C  0.87790293  0.91969099  0.04236417     0.78200
O240        O  0.80400536  0.87345232  0.04824457    -0.60300
O241        O  0.79746558  0.86957366  0.03522553    -0.51200
C242        C  0.77679139  0.95912201  0.05069413     0.70900
O243        O  0.80687392  0.95114675  0.05184536    -0.46000
C244        C  0.80361460  0.94334823  0.02472049     0.75600
O245        O  0.86004889  0.94594985  0.04234850    -0.57900
O246        O  0.78253316  0.92524140  0.02823738    -0.48000
O247        O  0.86173315  0.89335582  0.04130275    -0.54300
C248        C  0.79786010  0.85468606  0.04215166     0.85700
O249        O  0.76419776  0.94565030  0.04438848    -0.56200
O250        O  0.82849792  0.94942752  0.02921880    -0.59500
In251      In  0.81485970  0.53569697  0.04271177     1.36900
C252        C  0.87903603  0.52965886  0.04688084     0.78200
O253        O  0.83298175  0.50875399  0.03134220    -0.60300
O254        O  0.78386538  0.52853489  0.03106730    -0.51200
C255        C  0.78187152  0.49807923  0.05378437     0.70900
O256        O  0.80560984  0.51653266  0.05580627    -0.46000
C257        C  0.80055314  0.60165604  0.04196551     0.75600
O258        O  0.86268500  0.55674484  0.04733267    -0.57900
O259        O  0.81883456  0.58652474  0.03683018    -0.48000
O260        O  0.86221326  0.50537167  0.04437569    -0.54300
C261        C  0.80653962  0.51306407  0.02717567     0.85700
O262        O  0.77420320  0.50027717  0.04619532    -0.56200
O263        O  0.78862203  0.58271743  0.04746132    -0.59500
In264      In  0.80706541  0.42433862  0.95073070     1.36900
C265        C  0.87225085  0.43190987  0.94837276     0.78200
O266        O  0.82256329  0.45534774  0.96166431    -0.60300
O267        O  0.77942510  0.42662439  0.96297198    -0.51200
C268        C  0.76698099  0.45897314  0.94020336     0.70900
O269        O  0.79634603  0.45019677  0.93844084    -0.46000
C270        C  0.79678351  0.35856878  0.94921652     0.75600
O271        O  0.85155506  0.45596358  0.94814821    -0.57900
O272        O  0.79618714  0.37835998  0.94307828    -0.48000
O273        O  0.85925408  0.40382677  0.94951017    -0.54300
C274        C  0.79970680  0.44596322  0.96640963     0.85700
O275        O  0.75808812  0.44969309  0.94733822    -0.56200
O276        O  0.80208978  0.37275421  0.95605280    -0.59500
In277      In  0.19582291  0.92472413  0.04177781     1.36900
C278        C  0.12954267  0.92503127  0.04271139     0.78200
O279        O  0.18434088  0.96681667  0.03284929    -0.60300
O280        O  0.21808422  0.92894456  0.02899361    -0.51200
C281        C  0.23493641  0.96092976  0.05183205     0.70900
O282        O  0.20372620  0.96002860  0.05239384    -0.46000
C283        C  0.20605891  0.85904715  0.04464670     0.75600
O284        O  0.14791945  0.93785732  0.04816900    -0.57900
O285        O  0.21053630  0.87269613  0.03767801    -0.48000
O286        O  0.14534481  0.91179241  0.03679752    -0.54300
C287        C  0.20216517  0.95539764  0.02706861     0.85700
O288        O  0.24648085  0.94277626  0.04608917    -0.56200
O289        O  0.19853907  0.87942787  0.05030686    -0.59500
In290      In  0.19222511  0.05714540  0.95157162     1.36900
C291        C  0.12849555  0.04279924  0.94888330     0.78200
O292        O  0.20067775  0.01799946  0.96141996    -0.60300
O293        O  0.19661927  0.06820463  0.96531357    -0.51200
C294        C  0.23147745  0.02168684  0.94124358     0.70900
O295        O  0.20051105  0.02513002  0.94028221    -0.46000
C296        C  0.20080256  0.12327471  0.94994623     0.75600
O297        O  0.14671469  0.05469196  0.94325776    -0.57900
O298        O  0.17283840  0.10974489  0.94942326    -0.48000
O299        O  0.14325792  0.03801575  0.95573615    -0.54300
C300        C  0.20004486  0.03798207  0.96745422     0.85700
O301        O  0.24269071  0.03715729  0.94742834    -0.56200
O302        O  0.22457412  0.10270244  0.95098314    -0.59500
In303      In  0.19359367  0.54220153  0.04791116     1.36900
C304        C  0.12824843  0.53650502  0.05006108     0.78200
O305        O  0.18188396  0.59066892  0.05463640    -0.60300
O306        O  0.22067917  0.58999067  0.04581711    -0.51200
C307        C  0.23459506  0.50176344  0.05684913     0.70900
O308        O  0.20665797  0.49297694  0.05417255    -0.46000
C309        C  0.20229857  0.52608985  0.03189630     0.75600
O310        O  0.14846986  0.53621605  0.05610526    -0.57900
O311        O  0.20547637  0.55527859  0.03463061    -0.48000
O312        O  0.14166521  0.54046894  0.04307817    -0.54300
C313        C  0.20332935  0.60728543  0.05076855     0.85700
O314        O  0.24144461  0.53144027  0.05502433    -0.56200
O315        O  0.19550485  0.50494615  0.03743315    -0.59500
In316      In  0.18789625  0.43999062  0.95601240     1.36900
C317        C  0.12243009  0.44132659  0.95294353     0.78200
O318        O  0.18982243  0.39271895  0.94857445    -0.60300
O319        O  0.20523434  0.38994630  0.96115297    -0.51200
C320        C  0.22655856  0.47816618  0.94644326     0.70900
O321        O  0.20187410  0.48952231  0.95038192    -0.46000
C322        C  0.19747198  0.46429917  0.97118791     0.75600
O323        O  0.14338488  0.45203757  0.94780547    -0.57900
O324        O  0.21841749  0.44519492  0.96769538    -0.48000
O325        O  0.13530737  0.42959048  0.95952472    -0.54300
C326        C  0.20055828  0.37442730  0.95445213     0.85700
O327        O  0.23151717  0.44729801  0.94747101    -0.56200
O328        O  0.17227715  0.47138678  0.96679193    -0.59500
C329        C  0.90007804  0.07096149  0.40657661    -0.01900
C330        C  0.91687106  0.32355945  0.40213966    -0.01900
C331        C  0.14873663  0.07386850  0.40366208    -0.01900
C332        C  0.17392462  0.32475126  0.40471886    -0.01900
C333        C  0.13444788  0.08386759  0.33902571    -0.01900
C334        C  0.88747147  0.07546498  0.34339616    -0.01900
C335        C  0.90304570  0.33406530  0.33991683    -0.01900
C336        C  0.15109655  0.34063580  0.34350020    -0.01900
In337      In  0.20612837  0.92043329  0.20245713     1.36900
C338        C  0.21276006  0.85570689  0.19851592     0.78200
O339        O  0.20562303  0.90184928  0.21570577    -0.60300
O340        O  0.23477442  0.94375408  0.21301794    -0.51200
C341        C  0.24269421  0.95942627  0.19255322     0.70900
O342        O  0.24557378  0.92809266  0.19288900    -0.46000
C343        C  0.14160952  0.93658945  0.20085474     0.75600
O344        O  0.18636484  0.87253651  0.19727764    -0.57900
O345        O  0.15747090  0.93918989  0.20760506    -0.48000
O346        O  0.23623209  0.87239941  0.20153496    -0.54300
C347        C  0.22511887  0.92347872  0.21847751     0.85700
O348        O  0.22042037  0.97110700  0.19726945    -0.56200
O349        O  0.15940949  0.92767864  0.19479959    -0.59500
In350      In  0.32645862  0.89507191  0.29386307     1.36900
C351        C  0.32323688  0.82794517  0.29520420     0.78200
O352        O  0.28753890  0.91066071  0.28434134    -0.60300
O353        O  0.33577853  0.89791693  0.28008689    -0.51200
C354        C  0.28759571  0.93148307  0.30424674     0.70900
O355        O  0.28310806  0.90100158  0.30280636    -0.46000
C356        C  0.39105819  0.91033948  0.29590853     0.75600
O357        O  0.33292125  0.84623413  0.30107122    -0.57900
O358        O  0.37199925  0.92547014  0.29083553    -0.48000
O359        O  0.31458276  0.84419705  0.28880012    -0.54300
C360        C  0.30657454  0.90734176  0.27816313     0.85700
O361        O  0.31228854  0.94302763  0.30047451    -0.56200
O362        O  0.37657746  0.88846252  0.30014369    -0.59500
In363      In  0.70586811  0.90201169  0.29330034     1.36900
C364        C  0.70864009  0.83553250  0.29600620     0.78200
O365        O  0.66058722  0.92304662  0.29994236    -0.60300
O366        O  0.65477864  0.90614600  0.28761947    -0.51200
C367        C  0.73889178  0.94073066  0.30424134     0.70900
O368        O  0.72420572  0.91438656  0.30631557    -0.46000
C369        C  0.73030668  0.91162676  0.27798792     0.75600
O370        O  0.73310214  0.85425622  0.29722448    -0.57900
O371        O  0.70828408  0.93030137  0.28117869    -0.48000
O372        O  0.68280000  0.85103560  0.29358153    -0.54300
C373        C  0.64087895  0.91837637  0.29393848     0.85700
O374        O  0.73677497  0.94696243  0.29656151    -0.56200
O375        O  0.74069597  0.88865482  0.28278727    -0.59500
In376      In  0.82652694  0.91859715  0.20268056     1.36900
C377        C  0.82236616  0.85421270  0.19871970     0.78200
O378        O  0.86976162  0.95009384  0.19869767    -0.60300
O379        O  0.87969814  0.90499130  0.20525796    -0.51200
C380        C  0.79124307  0.95443997  0.19154115     0.70900
O381        O  0.79149389  0.92302117  0.19180710    -0.46000
C382        C  0.80642580  0.92964860  0.21833823     0.75600
O383        O  0.80816920  0.86673151  0.20498382    -0.57900
O384        O  0.83629949  0.93081948  0.21609872    -0.48000
O385        O  0.83822665  0.87492848  0.19442842    -0.54300
C386        C  0.89147818  0.93046120  0.20180233     0.85700
O387        O  0.80851392  0.96769858  0.19716420    -0.56200
O388        O  0.78646113  0.92420540  0.21244030    -0.59500
In389      In  0.33865594  0.50700119  0.29276702     1.36900
C390        C  0.33464005  0.57411196  0.29316848     0.78200
O391        O  0.38696043  0.51758304  0.29938377    -0.60300
O392        O  0.38603968  0.47569590  0.29154905    -0.51200
C393        C  0.30359465  0.47113552  0.30396157     0.70900
O394        O  0.31061194  0.50140903  0.30483299    -0.46000
C395        C  0.31482462  0.49837255  0.27718910     0.75600
O396        O  0.31669147  0.55552580  0.29756263    -0.57900
O397        O  0.34471390  0.49264411  0.27924048    -0.48000
O398        O  0.35404775  0.55816061  0.28843189    -0.54300
C399        C  0.40344465  0.49421637  0.29608619     0.85700
O400        O  0.31548068  0.45862339  0.29740865    -0.56200
O401        O  0.29685560  0.50741348  0.28320559    -0.59500
In402      In  0.21321520  0.53746683  0.20228949     1.36900
C403        C  0.21591563  0.60338520  0.19921316     0.78200
O404        O  0.16107635  0.54672342  0.20713949    -0.60300
O405        O  0.16649371  0.51812232  0.19622733    -0.51200
C406        C  0.25019614  0.49996287  0.19175452     0.70900
O407        O  0.25483839  0.53072182  0.19280089    -0.46000
C408        C  0.23787326  0.51854336  0.21729336     0.75600
O409        O  0.20589007  0.58280451  0.19387674    -0.57900
O410        O  0.21130843  0.50726607  0.21428804    -0.48000
O411        O  0.22484628  0.58994141  0.20599201    -0.54300
C412        C  0.14671795  0.53081199  0.20144226     0.85700
O413        O  0.22661161  0.48896724  0.19602990    -0.56200
O414        O  0.25197874  0.53891665  0.21253503    -0.59500
In415      In  0.71720284  0.51782969  0.29123731     1.36900
C416        C  0.72216117  0.58311340  0.29479374     0.78200
O417        O  0.74706417  0.49726490  0.28050032    -0.60300
O418        O  0.70818489  0.53210233  0.27788865    -0.51200
C419        C  0.75616504  0.47604290  0.30044633     0.70900
O420        O  0.76265614  0.50642591  0.29930672    -0.46000
C421        C  0.65327690  0.50190040  0.29287800     0.75600
O422        O  0.70256895  0.56400921  0.29852464    -0.57900
O423        O  0.66938130  0.49738921  0.28626633    -0.48000
O424        O  0.74054632  0.56822266  0.28963659    -0.54300
C425        C  0.73131521  0.51395875  0.27501795     0.85700
O426        O  0.72976247  0.46729883  0.29687951    -0.56200
O427        O  0.67034982  0.51337471  0.29878480    -0.59500
In428      In  0.82904226  0.53844664  0.19978740     1.36900
C429        C  0.82569316  0.60399338  0.19691856     0.78200
O430        O  0.80693580  0.55612234  0.21173951    -0.60300
O431        O  0.82017318  0.50485558  0.21085281    -0.51200
C432        C  0.78799268  0.50334392  0.19013611     0.70900
O433        O  0.81910912  0.50318879  0.18909903    -0.46000
C434        C  0.89463140  0.52655436  0.19827141     0.75600
O435        O  0.80986763  0.58345678  0.19255375    -0.57900
O436        O  0.87777673  0.51527194  0.20422317    -0.48000
O437        O  0.84284681  0.59069247  0.20266352    -0.54300
C438        C  0.80797692  0.52796612  0.21527785     0.85700
O439        O  0.77822283  0.52157560  0.19601136    -0.56200
O440        O  0.87728080  0.54151989  0.19281370    -0.59500
C441        C  0.39503917  0.34633499  0.15524436    -0.01900
C442        C  0.39165155  0.09150021  0.15348233    -0.01900
C443        C  0.64242797  0.09378242  0.15267587    -0.01900
C444        C  0.64392092  0.34599951  0.15656536    -0.01900
C445        C  0.63033090  0.10312492  0.08873360    -0.01900
C446        C  0.63686134  0.36105984  0.09224451    -0.01900
C447        C  0.38621572  0.09468298  0.09078396    -0.01900
C448        C  0.39281686  0.35081459  0.09077250    -0.01900
C449        C  0.40489491  0.25424014  0.08663674    -0.01400
C450        C  0.37479737  0.24114370  0.08938349     0.07200
C451        C  0.35029465  0.26308369  0.09234738    -0.07400
C452        C  0.35562188  0.29772231  0.09274194     0.04600
C453        C  0.38619700  0.31192774  0.08993008    -0.14600
C454        C  0.41078419  0.28829140  0.08734454    -0.07900
C455        C  0.37184882  0.20451181  0.09066982     0.05600
C456        C  0.39363985  0.18916814  0.09635558    -0.09000
C457        C  0.39739754  0.15450526  0.09675870     0.00600
C458        C  0.37876543  0.13351908  0.09128951     0.00400
C459        C  0.35310317  0.14954561  0.08654051    -0.12600
C460        C  0.35030633  0.18458440  0.08600586     0.00900
C461        C  0.42297215  0.14222913  0.10241215     0.40200
C462        C  0.32619819  0.19956720  0.08036885     0.36800
C463        C  0.43126215  0.23278176  0.08347705     0.36600
C464        C  0.33046810  0.31654699  0.09714995     0.37300
N465        N  0.44382361  0.13391613  0.10701696    -0.43500
N466        N  0.30691261  0.21170099  0.07585146    -0.43900
N467        N  0.30973098  0.32977185  0.10094700    -0.41300
N468        N  0.45235978  0.21576371  0.08090881    -0.42700
H469        H  0.43638282  0.29422015  0.08671554     0.13400
H470        H  0.32761735  0.25282990  0.09486042     0.09900
H471        H  0.40939202  0.20466117  0.10019565     0.11000
H472        H  0.33558640  0.13521304  0.08298401     0.16800
C473        C  0.54549294  0.39311675  0.09480393    -0.01400
C474        C  0.53146247  0.38578323  0.08695372     0.07200
C475        C  0.55331194  0.37878936  0.08040098    -0.07400
C476        C  0.58711530  0.37173320  0.08186942     0.04600
C477        C  0.60088414  0.37463572  0.09002678    -0.14600
C478        C  0.57994258  0.38972153  0.09605887    -0.07900
C479        C  0.49465850  0.38187461  0.08568554     0.05600
C480        C  0.47182109  0.40523231  0.08895418    -0.09000
C481        C  0.43787069  0.39767146  0.08965221     0.00600
C482        C  0.42625239  0.36561239  0.08725680     0.00400
C483        C  0.44725607  0.34868191  0.08163286    -0.12600
C484        C  0.48145414  0.35417169  0.08146040     0.00900
C485        C  0.41574730  0.42438105  0.09221356     0.40200
C486        C  0.50203010  0.32910277  0.07744168     0.36800
C487        C  0.52528855  0.40203829  0.10188474     0.36600
C488        C  0.60640819  0.36130960  0.07477873     0.37300
N489        N  0.39885731  0.44687376  0.09404392    -0.43500
N490        N  0.51827672  0.30884471  0.07422548    -0.43900
N491        N  0.62048255  0.35327726  0.06883931    -0.41300
N492        N  0.50916390  0.40919735  0.10756815    -0.42700
H493        H  0.58989654  0.39769536  0.10197060     0.13400
H494        H  0.54351628  0.37658122  0.07413385     0.09900
H495        H  0.48058495  0.42906433  0.09116862     0.11000
H496        H  0.43815397  0.32961531  0.07761352     0.16800
C497        C  0.54964021  0.07732106  0.07691311    -0.01400
C498        C  0.52698347  0.07381784  0.08346762     0.07200
C499        C  0.53948497  0.07030197  0.09150149    -0.07400
C500        C  0.57317888  0.07444699  0.09322725     0.04600
C501        C  0.59485273  0.08774577  0.08700856    -0.14600
C502        C  0.58346033  0.08352070  0.07871808    -0.07900
C503        C  0.49032618  0.07821301  0.08254865     0.05600
C504        C  0.46939168  0.05081280  0.08343098    -0.09000
C505        C  0.43557436  0.05529104  0.08557589     0.00600
C506        C  0.42225627  0.08800907  0.08720763     0.00400
C507        C  0.44268085  0.11496591  0.08480769    -0.12600
C508        C  0.47623731  0.11047142  0.08287338     0.00900
C509        C  0.41664413  0.02543574  0.08690076     0.40200
C510        C  0.49633373  0.13985008  0.08207759     0.36800
C511        C  0.53851778  0.07538854  0.06838692     0.36600
C512        C  0.58423926  0.05937972  0.10093747     0.37300
N513        N  0.40211864  0.00111489  0.08798868    -0.43500
N514        N  0.51190997  0.16379196  0.08161050    -0.43900
N515        N  0.59278820  0.04564093  0.10694447    -0.41300
N516        N  0.52952198  0.07343816  0.06155863    -0.42700
H517        H  0.60042401  0.08749657  0.07360578     0.13400
H518        H  0.52276947  0.06407872  0.09650334     0.09900
H519        H  0.48009386  0.02578763  0.08310220     0.11000
H520        H  0.43334814  0.14036370  0.08457304     0.16800
C521        C  0.61065344  0.26786039  0.09210306    -0.01400
C522        C  0.63698264  0.25069352  0.08822679     0.07200
C523        C  0.66089777  0.26950406  0.08411401    -0.07400
C524        C  0.66004694  0.30476534  0.08423580     0.04600
C525        C  0.63688469  0.32256011  0.08948996    -0.14600
C526        C  0.61004868  0.30279919  0.09233117    -0.07900
C527        C  0.63731805  0.21347321  0.08743626     0.05600
C528        C  0.61111094  0.19825687  0.08325614    -0.09000
C529        C  0.60940310  0.16338590  0.08248390     0.00600
C530        C  0.63322431  0.14192777  0.08664178     0.00400
C531        C  0.66164763  0.15826488  0.08994366    -0.12600
C532        C  0.66367327  0.19316368  0.09042902     0.00900
C533        C  0.58673215  0.15305882  0.07611060     0.40200
C534        C  0.69252838  0.20747182  0.09432713     0.36800
C535        C  0.58367617  0.25045846  0.09602277     0.36600
C536        C  0.67821488  0.31961874  0.07750036     0.37300
N537        N  0.56905229  0.14766835  0.07058402    -0.43500
N538        N  0.71572492  0.21898155  0.09741456    -0.43900
N539        N  0.69271289  0.33005256  0.07188165    -0.41300
N540        N  0.56194826  0.23694096  0.09922276    -0.42700
H541        H  0.58754106  0.31411593  0.09436886     0.13400
H542        H  0.67903009  0.25647194  0.08028350     0.09900
H543        H  0.59230861  0.21410175  0.08025688     0.11000
H544        H  0.68198699  0.14340608  0.09257586     0.16800
C545        C  0.62300038  0.34556009  0.11609016    -0.01400
C546        C  0.65336354  0.35390541  0.11995698     0.07200
C547        C  0.67767080  0.36810226  0.11485529    -0.07400
C548        C  0.67123083  0.37574625  0.10640610     0.04600
C549        C  0.64352533  0.36132235  0.10210464    -0.14600
C550        C  0.61972615  0.34633382  0.10742712    -0.07900
C551        C  0.65851828  0.34919426  0.12923632     0.05600
C552        C  0.64338074  0.32193630  0.13307922    -0.09000
C553        C  0.63629975  0.32208858  0.14155965     0.00600
C554        C  0.65169193  0.34555137  0.14698316     0.00400
C555        C  0.67399255  0.36795421  0.14319383    -0.12600
C556        C  0.67494605  0.37209266  0.13449841     0.00900
C557        C  0.61049291  0.29966393  0.14415130     0.40200
C558        C  0.69023606  0.40196385  0.13140069     0.36800
C559        C  0.59309743  0.33858098  0.12074499     0.36600
C560        C  0.69035506  0.40311602  0.10323876     0.37300
N561        N  0.58921221  0.28190680  0.14592395    -0.43500
N562        N  0.70233570  0.42621731  0.12903566    -0.43900
N563        N  0.70564099  0.42567361  0.10101076    -0.41300
N564        N  0.56909582  0.33313123  0.12442784    -0.42700
H565        H  0.59664256  0.33909109  0.10522644     0.13400
H566        H  0.70116323  0.37537590  0.11751192     0.09900
H567        H  0.63335050  0.30214577  0.12928780     0.11000
H568        H  0.68916629  0.38425112  0.14686734     0.16800
C569        C  0.67089272  0.07983746  0.11032195    -0.01400
C570        C  0.64970199  0.09687234  0.11589705     0.07200
C571        C  0.62553104  0.11899447  0.11264446    -0.07400
C572        C  0.61928721  0.12129088  0.10410030     0.04600
C573        C  0.63840738  0.10174258  0.09833350    -0.14600
C574        C  0.66577036  0.08308257  0.10167849    -0.07900
C575        C  0.65007298  0.09073023  0.12509064     0.05600
C576        C  0.67824092  0.09786617  0.12994194    -0.09000
C577        C  0.67712231  0.09701027  0.13872221     0.00600
C578        C  0.64712488  0.08862931  0.14297279     0.00400
C579        C  0.61980877  0.08011531  0.13782547    -0.12600
C580        C  0.62095470  0.08094595  0.12919290     0.00900
C581        C  0.70695911  0.10623034  0.14314682     0.40200
C582        C  0.59014899  0.07429793  0.12485677     0.36800
C583        C  0.69732878  0.05790530  0.11329638     0.36600
C584        C  0.59097183  0.14189119  0.10158809     0.37300
N585        N  0.73109006  0.11332755  0.14663591    -0.43500
N586        N  0.56450430  0.06948509  0.12181589    -0.43900
N587        N  0.56791278  0.15801532  0.09969454    -0.41300
N588        N  0.71862356  0.04035286  0.11564833    -0.42700
H589        H  0.68311061  0.07023159  0.09764930     0.13400
H590        H  0.60997148  0.13327626  0.11688521     0.09900
H591        H  0.70078760  0.10569953  0.12687321     0.11000
H592        H  0.59533320  0.07653815  0.14026320     0.16800
C593        C  0.62880363  0.25353936  0.16263687    -0.01400
C594        C  0.65818840  0.23749084  0.15987687     0.07200
C595        C  0.68531959  0.25723634  0.15773436    -0.07400
C596        C  0.68228412  0.29233695  0.15750342     0.04600
C597        C  0.65110225  0.30867947  0.15925231    -0.14600
C598        C  0.62562482  0.28822531  0.16235279    -0.07900
C599        C  0.65827322  0.20129848  0.15770599     0.05600
C600        C  0.63654586  0.19140195  0.15143283    -0.09000
C601        C  0.63217829  0.15776658  0.14953243     0.00600
C602        C  0.64987595  0.13193229  0.15404732     0.00400
C603        C  0.67468434  0.14280954  0.15972265    -0.12600
C604        C  0.67853754  0.17686198  0.16164560     0.00900
C605        C  0.60765264  0.15162383  0.14316566     0.40200
C606        C  0.70277003  0.18602616  0.16784663     0.36800
C607        C  0.59958540  0.23545025  0.16501169     0.36600
C608        C  0.71129258  0.31086955  0.15513183     0.37300
N609        N  0.58798643  0.14845759  0.13795790    -0.43500
N610        N  0.72226269  0.19333068  0.17281257    -0.43900
N611        N  0.73464532  0.32572682  0.15332804    -0.41300
N612        N  0.57498962  0.22295340  0.16688920    -0.42700
H613        H  0.60117590  0.29794564  0.16369065     0.13400
H614        H  0.70829091  0.24519751  0.15572763     0.09900
H615        H  0.62190934  0.21037146  0.14812974     0.11000
H616        H  0.69118264  0.12510096  0.16281442     0.16800
C617        C  0.36951261  0.11188102  0.13022176    -0.01400
C618        C  0.36751717  0.08005209  0.12664649     0.07200
C619        C  0.37201577  0.05189018  0.13173155    -0.07400
C620        C  0.37904209  0.05486029  0.14025015     0.04600
C621        C  0.38041706  0.08698393  0.14409922    -0.14600
C622        C  0.37605908  0.11507221  0.13871755    -0.07900
C623        C  0.36856638  0.07610572  0.11747268     0.05600
C624        C  0.39826736  0.06426825  0.11406000    -0.09000
C625        C  0.40511399  0.06761940  0.10557770     0.00600
C626        C  0.38094047  0.08272808  0.10004843     0.00400
C627        C  0.34956775  0.09141342  0.10361930    -0.12600
C628        C  0.34338330  0.08842288  0.11214933     0.00900
C629        C  0.43869758  0.05810581  0.10350644     0.40200
C630        C  0.31146138  0.09924879  0.11534649     0.36800
C631        C  0.36828576  0.14184408  0.12515452     0.36600
C632        C  0.38537896  0.02399931  0.14470810     0.37300
N633        N  0.46611415  0.04976623  0.10253474    -0.43500
N634        N  0.28588527  0.10793393  0.11791272    -0.43900
N635        N  0.38977733  0.99849125  0.14798683    -0.41300
N636        N  0.36738110  0.16578974  0.12109040    -0.42700
H637        H  0.38055033  0.14011614  0.14083569     0.13400
H638        H  0.37175606  0.02731909  0.12891454     0.09900
H639        H  0.41759622  0.05469192  0.11824007     0.11000
H640        H  0.33007238  0.10227419  0.09970657     0.16800
C641        C  0.48435717  0.09222102  0.14753113    -0.01400
C642        C  0.49995916  0.06967681  0.15310796     0.07200
C643        C  0.47990310  0.04910942  0.15798045    -0.07400
C644        C  0.44484552  0.05293742  0.15795734     0.04600
C645        C  0.42915837  0.07948078  0.15329362    -0.14600
C646        C  0.44986122  0.09679350  0.14765403    -0.07900
C647        C  0.53647140  0.07176470  0.15478591     0.05600
C648        C  0.54809155  0.10164377  0.15804801    -0.09000
C649        C  0.58202368  0.10792875  0.15867062     0.00600
C650        C  0.60585130  0.08488449  0.15534340     0.00400
C651        C  0.59417404  0.05212368  0.15382229    -0.12600
C652        C  0.55975185  0.04592157  0.15313678     0.00900
C653        C  0.59068940  0.13632531  0.16360800     0.40200
C654        C  0.54910935  0.01428108  0.14991608     0.36800
C655        C  0.50326710  0.11260093  0.14190049     0.36600
C656        C  0.42685612  0.02835655  0.16260424     0.37300
N657        N  0.59777099  0.15807488  0.16792714    -0.43500
N658        N  0.54054150  0.98900782  0.14726717    -0.43900
N659        N  0.41322159  0.00795532  0.16632497    -0.41300
N660        N  0.51781707  0.12916438  0.13732192    -0.42700
H661        H  0.43929349  0.11622782  0.14368719     0.13400
H662        H  0.49177042  0.03069981  0.16204781     0.09900
H663        H  0.53039414  0.12063330  0.16003955     0.11000
H664        H  0.61175611  0.03279501  0.15192128     0.16800
C665        C  0.42356969  0.36185970  0.13231876    -0.01400
C666        C  0.39436397  0.35682175  0.12768861     0.07200
C667        C  0.36484645  0.35030654  0.13194310    -0.07400
C668        C  0.36407967  0.34824573  0.14067659     0.04600
C669        C  0.39342879  0.35369694  0.14555000    -0.14600
C670        C  0.42301003  0.35991804  0.14099118    -0.07900
C671        C  0.39454147  0.35708748  0.11840517     0.05600
C672        C  0.41582415  0.33512881  0.11417000    -0.09000
C673        C  0.41799923  0.33571452  0.10547352     0.00600
C674        C  0.39559339  0.35601405  0.10054625     0.00400
C675        C  0.37817299  0.38113406  0.10505330    -0.12600
C676        C  0.37633673  0.38097383  0.11376194     0.00900
C677        C  0.44637959  0.31805758  0.10205970     0.40200
C678        C  0.35666120  0.40661775  0.11781573     0.36800
C679        C  0.45494940  0.36845497  0.12831674     0.36600
C680        C  0.33276022  0.33904162  0.14431562     0.37300
N681        N  0.47016690  0.30440203  0.09971488    -0.43500
N682        N  0.34076836  0.42703217  0.12107402    -0.43900
N683        N  0.30717405  0.33180827  0.14698606    -0.41300
N684        N  0.48015760  0.37348592  0.12513761    -0.42700
H685        H  0.44699099  0.36129539  0.14398656     0.13400
H686        H  0.34234991  0.34579283  0.12838271     0.09900
H687        H  0.43190789  0.31819108  0.11771810     0.11000
H688        H  0.36779053  0.40288224  0.10205307     0.16800
C689        C  0.40385620  0.25186422  0.15098265    -0.01400
C690        C  0.37993746  0.23693687  0.15606701     0.07200
C691        C  0.35789072  0.25751190  0.16050700    -0.07400
C692        C  0.36018972  0.29259098  0.16025049     0.04600
C693        C  0.38680362  0.30801122  0.15581451    -0.14600
C694        C  0.40721842  0.28640044  0.15096496    -0.07900
C695        C  0.37985325  0.19996276  0.15715517     0.05600
C696        C  0.40936666  0.18433497  0.15984131    -0.09000
C697        C  0.41413396  0.14979018  0.15933055     0.00600
C698        C  0.38820784  0.12927528  0.15610629     0.00400
C699        C  0.35650290  0.14509195  0.15500235    -0.12600
C700        C  0.35260630  0.18002508  0.15506740     0.00900
C701        C  0.44567327  0.13771278  0.16257275     0.40200
C702        C  0.32149125  0.19468116  0.15219939     0.36800
C703        C  0.42553853  0.23215611  0.14569864     0.36600
C704        C  0.33346432  0.31065001  0.16427834     0.37300
N705        N  0.47103974  0.12924132  0.16539112    -0.43500
N706        N  0.29658024  0.20629216  0.14982274    -0.43900
N707        N  0.31136624  0.32415429  0.16751087    -0.41300
N708        N  0.44283110  0.21627192  0.14148464    -0.42700
H709        H  0.42698144  0.29663737  0.14723133     0.13400
H710        H  0.33876304  0.24603392  0.16423924     0.09900
H711        H  0.42964374  0.19969604  0.16201067     0.11000
H712        H  0.33551518  0.13029894  0.15306237     0.16800
C713        C  0.48581157  0.33099741  0.16343175    -0.01400
C714        C  0.50053286  0.36196099  0.16181813     0.07200
C715        C  0.47993877  0.38923095  0.15963160    -0.07400
C716        C  0.44569776  0.38542178  0.15824514     0.04600
C717        C  0.43126003  0.35304387  0.15865175    -0.14600
C718        C  0.45167333  0.32703245  0.16206079    -0.07900
C719        C  0.53733112  0.36500280  0.16109602     0.05600
C720        C  0.55036062  0.37311499  0.15332367    -0.09000
C721        C  0.58462592  0.37135972  0.15184471     0.00600
C722        C  0.60677573  0.35773390  0.15805561     0.00400
C723        C  0.59395674  0.35649508  0.16624894    -0.12600
C724        C  0.55957193  0.35904220  0.16775941     0.00900
C725        C  0.59536869  0.38759948  0.14431107     0.40200
C726        C  0.54759225  0.35468521  0.17612778     0.36800
C727        C  0.50545991  0.30217311  0.16601806     0.36600
C728        C  0.42715753  0.41483326  0.15556386     0.37300
N729        N  0.60297686  0.40161940  0.13832296    -0.43500
N730        N  0.53779216  0.35110065  0.18281951    -0.43900
N731        N  0.41290521  0.43879048  0.15342585    -0.41300
N732        N  0.52109630  0.27911065  0.16816156    -0.42700
H733        H  0.44163378  0.30287016  0.16351566     0.13400
H734        H  0.49104971  0.41337079  0.15857362     0.09900
H735        H  0.53352826  0.38083617  0.14833598     0.11000
H736        H  0.61055128  0.35021494  0.17138720     0.16800
C737        C  0.68064603  0.43034417  0.16356702    -0.01400
C738        C  0.70199624  0.42126429  0.17017133     0.07200
C739        C  0.70301576  0.38817827  0.17291113    -0.07400
C740        C  0.68417548  0.36359423  0.16904547     0.04600
C741        C  0.66502279  0.37140665  0.16170315    -0.14600
C742        C  0.66214440  0.40578530  0.15953495    -0.07900
C743        C  0.72231388  0.44571871  0.17476082     0.05600
C744        C  0.71302287  0.45404917  0.18288244    -0.09000
C745        C  0.73386379  0.47287562  0.18796836     0.00600
C746        C  0.76479939  0.48389391  0.18490967     0.00400
C747        C  0.77382472  0.47588552  0.17671206    -0.12600
C748        C  0.75284214  0.45701036  0.17163391     0.00900
C749        C  0.72373149  0.47846614  0.19645920     0.40200
C750        C  0.76364956  0.44838397  0.16335945     0.36800
C751        C  0.67680067  0.46474778  0.16094640     0.36600
C752        C  0.68345765  0.33216202  0.17347284     0.37300
N753        N  0.71555820  0.48264075  0.20327080    -0.43500
N754        N  0.77225419  0.44143209  0.15672402    -0.43900
N755        N  0.68338995  0.30736821  0.17720914    -0.41300
N756        N  0.67361264  0.49233999  0.15886295    -0.42700
H757        H  0.64571195  0.41350900  0.15448954     0.13400
H758        H  0.71812001  0.38170166  0.17832913     0.09900
H759        H  0.68986225  0.44473797  0.18535201     0.11000
H760        H  0.79742516  0.48418147  0.17428186     0.16800
C761        C  0.78040937  0.49707896  0.25536151    -0.01400
C762        C  0.76120029  0.51399110  0.24923322     0.07200
C763        C  0.73096541  0.52935812  0.25152352    -0.07400
C764        C  0.72035785  0.52930511  0.25981174     0.04600
C765        C  0.73996984  0.51296683  0.26602448    -0.14600
C766        C  0.76958106  0.49643797  0.26363195    -0.07900
C767        C  0.77298928  0.51748961  0.24050643     0.05600
C768        C  0.77841591  0.48887581  0.23564591    -0.09000
C769        C  0.79001245  0.49141500  0.22744901     0.00600
C770        C  0.79596633  0.52321819  0.22393067     0.00400
C771        C  0.79021469  0.55176874  0.22881260    -0.12600
C772        C  0.77915979  0.54916346  0.23702005     0.00900
C773        C  0.79515446  0.46100628  0.22280857     0.40200
C774        C  0.77554553  0.57933551  0.24184585     0.36800
C775        C  0.81224471  0.48181629  0.25341118     0.36600
C776        C  0.68961630  0.54686900  0.26170103     0.37300
N777        N  0.79935990  0.43661724  0.21909590    -0.43500
N778        N  0.77273439  0.60346124  0.24573219    -0.43900
N779        N  0.66507294  0.56120311  0.26316689    -0.41300
N780        N  0.83782151  0.46970163  0.25185027    -0.42700
H781        H  0.78501949  0.48388205  0.26828526     0.13400
H782        H  0.71595038  0.54217622  0.24682284     0.09900
H783        H  0.77358032  0.46445634  0.23827753     0.11000
H784        H  0.79491562  0.57635792  0.22626438     0.16800
C785        C  0.31700191  0.47333355  0.17619284    -0.01400
C786        C  0.31185280  0.43864029  0.17551235     0.07200
C787        C  0.28624179  0.42430501  0.18011929    -0.07400
C788        C  0.26575104  0.44368582  0.18530856     0.04600
C789        C  0.27083369  0.47850639  0.18608487    -0.14600
C790        C  0.29661820  0.49286828  0.18143698    -0.07900
C791        C  0.33313019  0.41632660  0.17023560     0.05600
C792        C  0.35335270  0.39194447  0.17409849    -0.09000
C793        C  0.37252706  0.36912951  0.16945754     0.00600
C794        C  0.37169285  0.36977035  0.16054941     0.00400
C795        C  0.35154748  0.39523285  0.15679368    -0.12600
C796        C  0.33222269  0.41774172  0.16149538     0.00900
C797        C  0.39191292  0.34470880  0.17415104     0.40200
C798        C  0.31123712  0.44191084  0.15717749     0.36800
C799        C  0.34350207  0.48926176  0.17172283     0.36600
C800        C  0.23980090  0.42681774  0.18975565     0.37300
N801        N  0.40702268  0.32529476  0.17805762    -0.43500
N802        N  0.29441723  0.46128454  0.15371690    -0.43900
N803        N  0.21895718  0.41331136  0.19331129    -0.41300
N804        N  0.36467801  0.50203251  0.16811743    -0.42700
H805        H  0.30107796  0.51941308  0.18193377     0.13400
H806        H  0.28216716  0.39766992  0.17963053     0.09900
H807        H  0.35399175  0.39059258  0.18083944     0.11000
H808        H  0.35128627  0.39884392  0.15014375     0.16800
C809        C  0.05473593  0.55071290  0.20453800    -0.01400
C810        C  0.03926949  0.52616088  0.19968253     0.07200
C811        C  0.05911937  0.50260148  0.19549839    -0.07400
C812        C  0.09402286  0.50325048  0.19605784     0.04600
C813        C  0.10975308  0.52807982  0.20086371    -0.14600
C814        C  0.08960937  0.55142390  0.20512131    -0.07900
C815        C  0.00236376  0.52428546  0.19905609     0.05600
C816        C  0.98573782  0.53975323  0.19234318    -0.09000
C817        C  0.95081741  0.53985486  0.19176360     0.00600
C818        C  0.93177512  0.52413631  0.19802775     0.00400
C819        C  0.94878788  0.50791066  0.20462714    -0.12600
C820        C  0.98366730  0.50788262  0.20517105     0.00900
C821        C  0.93545298  0.55696861  0.18476140     0.40200
C822        C  0.99987819  0.49113662  0.21210333     0.36800
C823        C  0.03522230  0.57563633  0.20889343     0.36600
C824        C  0.11285405  0.47743436  0.19184594     0.37300
N825        N  0.92318291  0.57071257  0.17914752    -0.43500
N826        N  0.01303527  0.47770233  0.21763673    -0.43900
N827        N  0.12782782  0.45659019  0.18848877    -0.41300
N828        N  0.01949516  0.59561277  0.21235967    -0.42700
H829        H  0.10111478  0.57066450  0.20882403     0.13400
H830        H  0.04724813  0.48344117  0.19183965     0.09900
H831        H  0.00011910  0.55228964  0.18761033     0.11000
H832        H  0.93482444  0.49572401  0.20949085     0.16800
C833        C  0.49148140  0.46146321  0.29243656    -0.01400
C834        C  0.51097446  0.48528222  0.29655943     0.07200
C835        C  0.49494688  0.51065706  0.30108512    -0.07400
C836        C  0.46011168  0.51337937  0.30132345     0.04600
C837        C  0.44034123  0.49008554  0.29698555    -0.14600
C838        C  0.45658648  0.46387795  0.29272574    -0.07900
C839        C  0.54786844  0.48617206  0.29565414     0.05600
C840        C  0.56121632  0.49186128  0.28773944    -0.09000
C841        C  0.59544993  0.49627969  0.28665934     0.00600
C842        C  0.61718297  0.49512788  0.29362085     0.00400
C843        C  0.60385255  0.48886123  0.30152533    -0.12600
C844        C  0.56959021  0.48425184  0.30258096     0.00900
C845        C  0.60711619  0.50394069  0.27840236     0.40200
C846        C  0.55732009  0.47734643  0.31081908     0.36800
C847        C  0.50676303  0.43463909  0.28776031     0.36600
C848        C  0.44576232  0.54132417  0.30577205     0.37300
N849        N  0.61636446  0.51017631  0.27178204    -0.43500
N850        N  0.54754023  0.47174473  0.31742609    -0.43900
N851        N  0.43455754  0.56390829  0.30932389    -0.41300
N852        N  0.51906822  0.41324330  0.28398754    -0.42700
H853        H  0.44203093  0.44575238  0.28936818     0.13400
H854        H  0.50980011  0.52928096  0.30418813     0.09900
H855        H  0.54461645  0.49396073  0.28240664     0.11000
H856        H  0.62023044  0.48767785  0.30691144     0.16800
C857        C  0.31478205  0.48156905  0.25388209    -0.01400
C858        C  0.28379642  0.49531593  0.25130506     0.07200
C859        C  0.26191299  0.50785075  0.25734088    -0.07400
C860        C  0.27087983  0.50816212  0.26579928     0.04600
C861        C  0.30257357  0.49571888  0.26840188    -0.14600
C862        C  0.32392315  0.48194670  0.26233834    -0.07900
C863        C  0.27442805  0.49913077  0.24234183     0.05600
C864        C  0.25062782  0.47808590  0.23883184    -0.09000
C865        C  0.23885213  0.48322220  0.23064962     0.00600
C866        C  0.25104721  0.50994045  0.22578204     0.00400
C867        C  0.27563274  0.53028807  0.22927518    -0.12600
C868        C  0.28703898  0.52533400  0.23746415     0.00900
C869        C  0.21408936  0.46082305  0.22748633     0.40200
C870        C  0.31040371  0.54862083  0.24088925     0.36800
C871        C  0.33759517  0.46700752  0.24795584     0.36600
C872        C  0.24736962  0.52260870  0.27156813     0.37300
N873        N  0.19418463  0.44283245  0.22498705    -0.43500
N874        N  0.32893449  0.56745302  0.24364700    -0.43900
N875        N  0.22842121  0.53425875  0.27616141    -0.41300
N876        N  0.35588115  0.45513955  0.24323239    -0.42700
H877        H  0.34812045  0.47184874  0.26417777     0.13400
H878        H  0.23801564  0.51838455  0.25539298     0.09900
H879        H  0.24073630  0.45796550  0.24256244     0.11000
H880        H  0.28520518  0.55101828  0.22570400     0.16800
C881        C  0.72787625  0.97423917  0.17459747    -0.01400
C882        C  0.73395493  0.00805206  0.17282942     0.07200
C883        C  0.75949962  0.02425040  0.17711326    -0.07400
C884        C  0.77875466  0.00737907  0.18316557     0.04600
C885        C  0.77218369  0.97362666  0.18510487    -0.14600
C886        C  0.74694294  0.95735348  0.18067052    -0.07900
C887        C  0.71099863  0.02825534  0.16747047     0.05600
C888        C  0.68826928  0.04931893  0.17140235    -0.09000
C889        C  0.66556191  0.06918498  0.16689133     0.00600
C890        C  0.66589707  0.06976551  0.15797478     0.00400
C891        C  0.68761712  0.04603514  0.15413363    -0.12600
C892        C  0.71035511  0.02613397  0.15876034     0.00900
C893        C  0.64237183  0.08763022  0.17196933     0.40200
C894        C  0.73317016  0.00406272  0.15445193     0.36800
C895        C  0.70140054  0.95675742  0.17047149     0.36600
C896        C  0.80539282  0.02521199  0.18713065     0.37300
N897        N  0.62501079  0.10042179  0.17675630    -0.43500
N898        N  0.75158563  0.98640069  0.15102952    -0.43900
N899        N  0.82684479  0.03952272  0.19026070    -0.41300
N900        N  0.68021630  0.94276651  0.16714302    -0.42700
H901        H  0.74160350  0.93146430  0.18205272     0.13400
H902        H  0.76402364  0.05037976  0.17580387     0.09900
H903        H  0.68801574  0.04986124  0.17815684     0.11000
H904        H  0.68731014  0.04249630  0.14748467     0.16800
C905        C  0.79527710  0.76430409  0.19947166    -0.01400
C906        C  0.81979136  0.74810472  0.19464833     0.07200
C907        C  0.84363090  0.76715919  0.19054403    -0.07400
C908        C  0.84412432  0.80195129  0.19144743     0.04600
C909        C  0.82083493  0.81809517  0.19673502    -0.14600
C910        C  0.79618390  0.79893078  0.20055432    -0.07900
C911        C  0.82291116  0.71117852  0.19456598     0.05600
C912        C  0.79985366  0.69235257  0.19008672    -0.09000
C913        C  0.80057476  0.65731803  0.19053615     0.00600
C914        C  0.82465186  0.64071013  0.19561592     0.00400
C915        C  0.84815173  0.65982232  0.19990638    -0.12600
C916        C  0.84749504  0.69464154  0.19941318     0.00900
C917        C  0.77568426  0.63934976  0.18594901     0.40200
C918        C  0.87159518  0.71293528  0.20419288     0.36800
C919        C  0.76960200  0.74570454  0.20357767     0.36600
C920        C  0.86953195  0.82005462  0.18710305     0.37300
N921        N  0.75571092  0.62499146  0.18226427    -0.43500
N922        N  0.89092920  0.72753417  0.20802665    -0.43900
N923        N  0.88979964  0.83453594  0.18357733    -0.41300
N924        N  0.74892561  0.73072312  0.20680606    -0.42700
H925        H  0.77776762  0.81094879  0.20449765     0.13400
H926        H  0.86241006  0.75466468  0.18679547     0.09900
H927        H  0.78087438  0.70512333  0.18636968     0.11000
H928        H  0.86695812  0.64757971  0.20378275     0.16800
C929        C  0.68504647  0.74448516  0.29387222    -0.01400
C930        C  0.71203731  0.72754760  0.29777820     0.07200
C931        C  0.73745544  0.74622876  0.30140010    -0.07400
C932        C  0.73666982  0.78128296  0.30107570     0.04600
C933        C  0.70993876  0.79843842  0.29703548    -0.14600
C934        C  0.68408889  0.77953144  0.29358333    -0.07900
C935        C  0.71563914  0.69047315  0.29756235     0.05600
C936        C  0.73996698  0.67621481  0.29240025    -0.09000
C937        C  0.74339203  0.64146811  0.29159600     0.00600
C938        C  0.72212982  0.62003253  0.29606772     0.00400
C939        C  0.69855621  0.63450779  0.30148400    -0.12600
C940        C  0.69519660  0.66932916  0.30225843     0.00900
C941        C  0.76857684  0.62885376  0.28600019     0.40200
C942        C  0.67074026  0.68280240  0.30793133     0.36800
C943        C  0.65884747  0.72643533  0.28977985     0.36600
C944        C  0.76373800  0.79878003  0.30493294     0.37300
N945        N  0.78877500  0.61887554  0.28149871    -0.43500
N946        N  0.65116771  0.69353706  0.31249751    -0.43900
N947        N  0.78551727  0.81269805  0.30803073    -0.41300
N948        N  0.63787150  0.71203586  0.28647717    -0.42700
H949        H  0.66345094  0.79210180  0.29041708     0.13400
H950        H  0.75829399  0.73328350  0.30439169     0.09900
H951        H  0.75594797  0.69242144  0.28883700     0.11000
H952        H  0.68218000  0.61863353  0.30501895     0.16800
C953        C  0.74226750  0.95109869  0.25670969    -0.01400
C954        C  0.76259924  0.92727618  0.25264485     0.07200
C955        C  0.77303784  0.89845162  0.25699904    -0.07400
C956        C  0.76313918  0.89275624  0.26522812     0.04600
C957        C  0.74236149  0.91642680  0.26931176    -0.14600
C958        C  0.73218541  0.94542593  0.26492433    -0.07900
C959        C  0.77319819  0.93146806  0.24384381     0.05600
C960        C  0.80725963  0.93366938  0.24209256    -0.09000
C961        C  0.81871458  0.93434518  0.23387199     0.00600
C962        C  0.79570920  0.93281967  0.22715923     0.00400
C963        C  0.76151896  0.93173766  0.22895848    -0.12600
C964        C  0.75019314  0.93078542  0.23718214     0.00900
C965        C  0.85426766  0.93524376  0.23259473     0.40200
C966        C  0.71499063  0.92712052  0.23860879     0.36800
C967        C  0.73209991  0.98191752  0.25265301     0.36600
C968        C  0.77420045  0.86202540  0.26918722     0.37300
N969        N  0.88277154  0.93582826  0.23158988    -0.43500
N970        N  0.68676996  0.92415038  0.23974437    -0.43900
N971        N  0.78314672  0.83730146  0.27230439    -0.41300
N972        N  0.72394653  0.00663665  0.24940974    -0.42700
H973        H  0.71641894  0.96396410  0.26793282     0.13400
H974        H  0.78866764  0.88003300  0.25389495     0.09900
H975        H  0.82505500  0.93407030  0.24719372     0.11000
H976        H  0.74350989  0.93045105  0.22392289     0.16800
C977        C  0.30765115  0.66141170  0.29990232    -0.01400
C978        C  0.32713640  0.68219267  0.29484086     0.07200
C979        C  0.35001645  0.66724553  0.28936527    -0.07400
C980        C  0.35337147  0.63235370  0.28877364     0.04600
C981        C  0.33298573  0.61140493  0.29363748    -0.14600
C982        C  0.31049135  0.62652489  0.29921521    -0.07900
C983        C  0.32419168  0.71948996  0.29510741     0.05600
C984        C  0.33239994  0.73656215  0.30243238    -0.09000
C985        C  0.33145382  0.77169708  0.30274442     0.00600
C986        C  0.32269401  0.79059711  0.29555080     0.00400
C987        C  0.31375708  0.77327732  0.28830052    -0.12600
C988        C  0.31418530  0.73827503  0.28804546     0.00900
C989        C  0.33927863  0.78741953  0.31055484     0.40200
C990        C  0.30334328  0.72221217  0.28050565     0.36800
C991        C  0.28415533  0.67520265  0.30577030     0.36600
C992        C  0.37839986  0.61908150  0.28322261     0.37300
N993        N  0.34534104  0.79987352  0.31685105    -0.43500
N994        N  0.29440453  0.70948680  0.27446613    -0.43900
N995        N  0.39868686  0.60864829  0.27880686    -0.41300
N996        N  0.26541344  0.68604896  0.31052976    -0.42700
H997        H  0.29495499  0.61104920  0.30308751     0.13400
H998        H  0.36557201  0.68301800  0.28556841     0.09900
H999        H  0.33988076  0.72235568  0.30791537     0.11000
H1000       H  0.30643814  0.78711154  0.28274812     0.16800
C1001       C  0.47511959  0.94995926  0.29212385    -0.01400
C1002       C  0.49715448  0.92754320  0.29623666     0.07200
C1003       C  0.48420108  0.90073144  0.30071941    -0.07400
C1004       C  0.44985206  0.89514324  0.30090620     0.04600
C1005       C  0.42748760  0.91695867  0.29657270    -0.14600
C1006       C  0.44063141  0.94462002  0.29233194    -0.07900
C1007       C  0.53385120  0.92900300  0.29518191     0.05600
C1008       C  0.55359379  0.94406159  0.30128126    -0.09000
C1009       C  0.58855912  0.94231970  0.30086250     0.00600
C1010       C  0.60424981  0.92479960  0.29428238     0.00400
C1011       C  0.58419241  0.91111302  0.28800765    -0.12600
C1012       C  0.54941398  0.91301089  0.28842209     0.00900
C1013       C  0.60754559  0.95874393  0.30724860     0.40200
C1014       C  0.53008840  0.89720698  0.28199591     0.36800
C1015       C  0.48754290  0.97800327  0.28747751     0.36600
C1016       C  0.43876836  0.86564832  0.30519994     0.37300
N1017       N  0.62278086  0.97204490  0.31234424    -0.43500
N1018       N  0.51453514  0.88453104  0.27686158    -0.43900
N1019       N  0.43004503  0.84185385  0.30860547    -0.41300
N1020       N  0.49766628  0.00044973  0.28376904    -0.42700
H1021       H  0.42402964  0.96171015  0.28899448     0.13400
H1022       H  0.50119918  0.88324273  0.30380768     0.09900
H1023       H  0.54164872  0.95663853  0.30645535     0.11000
H1024       H  0.59563674  0.89779949  0.28287681     0.16800
C1025       C  0.27462918  0.03525231  0.18084895    -0.01400
C1026       C  0.30154494  0.02132947  0.17638809     0.07200
C1027       C  0.30960973  0.98742534  0.17737563    -0.07400
C1028       C  0.29116795  0.96704228  0.18264938     0.04600
C1029       C  0.26363371  0.98054869  0.18706945    -0.14600
C1030       C  0.25594160  0.01488347  0.18614909    -0.07900
C1031       C  0.32212711  0.04136012  0.17066287     0.05600
C1032       C  0.34973186  0.05775890  0.17381203    -0.09000
C1033       C  0.37223242  0.07370759  0.16853435     0.00600
C1034       C  0.36787861  0.07304504  0.15968009     0.00400
C1035       C  0.33775360  0.05882226  0.15677776    -0.12600
C1036       C  0.31594315  0.04222189  0.16208334     0.00900
C1037       C  0.39975199  0.08921353  0.17268726     0.40200
C1038       C  0.28733790  0.02594675  0.15857387     0.36800
C1039       C  0.26560694  0.07018240  0.17997456     0.36600
C1040       C  0.30162753  0.93247621  0.18343873     0.37300
N1041       N  0.42090942  0.10039433  0.17664756    -0.43500
N1042       N  0.26450240  0.01270782  0.15577993    -0.43900
N1043       N  0.31008334  0.90478717  0.18407548    -0.41300
N1044       N  0.25843638  0.09818009  0.17923742    -0.42700
H1045       H  0.23510481  0.02580105  0.18949847     0.13400
H1046       H  0.33055883  0.97683769  0.17399446     0.09900
H1047       H  0.35416175  0.05738755  0.18047884     0.11000
H1048       H  0.33026757  0.06064060  0.15033566     0.16800
C1049       C  0.18577176  0.76615743  0.19603142    -0.01400
C1050       C  0.21642625  0.74834415  0.19594324     0.07200
C1051       C  0.24614696  0.76632878  0.19598598    -0.07400
C1052       C  0.24574444  0.80130921  0.19657315     0.04600
C1053       C  0.21502725  0.81910513  0.19696411    -0.14600
C1054       C  0.18532326  0.80113555  0.19643371    -0.07900
C1055       C  0.21794804  0.71108706  0.19648888     0.05600
C1056       C  0.20401113  0.69174319  0.19013162    -0.09000
C1057       C  0.20366881  0.65666734  0.19071246     0.00600
C1058       C  0.21705461  0.64028546  0.19785719     0.00400
C1059       C  0.23153696  0.65983706  0.20410572    -0.12600
C1060       C  0.23230837  0.69468856  0.20345831     0.00900
C1061       C  0.18934400  0.63839857  0.18389504     0.40200
C1062       C  0.24735550  0.71310602  0.21015663     0.36800
C1063       C  0.15443692  0.74907674  0.19629695     0.36600
C1064       C  0.27722982  0.81810918  0.19686795     0.37300
N1065       N  0.17801637  0.62385506  0.17839003    -0.43500
N1066       N  0.25964918  0.72783007  0.21549568    -0.43900
N1067       N  0.30246979  0.83157135  0.19713059    -0.41300
N1068       N  0.12929441  0.73545390  0.19655605    -0.42700
H1069       H  0.16152490  0.81431562  0.19674784     0.13400
H1070       H  0.26981275  0.75284868  0.19582697     0.09900
H1071       H  0.19327369  0.70413927  0.18470551     0.11000
H1072       H  0.24223048  0.64789446  0.20959656     0.16800
C1073       C  0.05371804  0.95882704  0.20740049    -0.01400
C1074       C  0.03455227  0.94560239  0.20087441     0.07200
C1075       C  0.05070358  0.93195908  0.19394190    -0.07400
C1076       C  0.08555123  0.92978889  0.19360842     0.04600
C1077       C  0.10492681  0.94191925  0.20030553    -0.14600
C1078       C  0.08852445  0.95697315  0.20706187    -0.07900
C1079       C  0.99778596  0.94327065  0.20142026     0.05600
C1080       C  0.97750505  0.96196555  0.19591568    -0.09000
C1081       C  0.94273645  0.95888696  0.19598396     0.00600
C1082       C  0.92784082  0.93632572  0.20158853     0.00400
C1083       C  0.94834308  0.91790613  0.20712047    -0.12600
C1084       C  0.98290808  0.92118852  0.20708660     0.00900
C1085       C  0.92327048  0.97833939  0.19006390     0.40200
C1086       C  0.00263331  0.90089210  0.21278334     0.36800
C1087       C  0.03818212  0.97364958  0.21460229     0.36600
C1088       C  0.10032984  0.91310717  0.18655586     0.37300
N1089       N  0.90772885  0.99395215  0.18530868    -0.43500
N1090       N  0.01835701  0.88471224  0.21738131    -0.43900
N1091       N  0.11191920  0.89953767  0.18089996    -0.41300
N1092       N  0.02572276  0.98533313  0.22039771    -0.42700
H1093       H  0.10290175  0.96655125  0.21222799     0.13400
H1094       H  0.03595881  0.92162494  0.18893244     0.09900
H1095       H  0.98893528  0.97879624  0.19151253     0.11000
H1096       H  0.93736860  0.90061759  0.21148809     0.16800
C1097       C  0.23885656  0.89575451  0.24085528    -0.01400
C1098       C  0.25756821  0.92201344  0.24419889     0.07200
C1099       C  0.26477464  0.94953917  0.23912657    -0.07400
C1100       C  0.25373932  0.95113962  0.23081937     0.04600
C1101       C  0.23595958  0.92424678  0.22736160    -0.14600
C1102       C  0.22849881  0.89693486  0.23251944    -0.07900
C1103       C  0.27020061  0.92079245  0.25293147     0.05600
C1104       C  0.30431447  0.91519431  0.25439298    -0.09000
C1105       C  0.31694501  0.91141092  0.26251517     0.00600
C1106       C  0.29512269  0.91319228  0.26941198     0.00400
C1107       C  0.26110204  0.92001133  0.26789779    -0.12600
C1108       C  0.24862454  0.92390665  0.25977650     0.00900
C1109       C  0.35235551  0.90567594  0.26351714     0.40200
C1110       C  0.21358681  0.93130864  0.25860522     0.36800
C1111       C  0.23019033  0.86715480  0.24584627     0.36600
C1112       C  0.26001086  0.98115872  0.22611464     0.37300
N1113       N  0.38075476  0.90114115  0.26430290    -0.43500
N1114       N  0.18551681  0.93731603  0.25765951    -0.43900
N1115       N  0.26465523  0.00531855  0.22234599    -0.41300
N1116       N  0.22296277  0.84436764  0.24986005    -0.42700
H1117       H  0.21465836  0.87620147  0.23002971     0.13400
H1118       H  0.27870263  0.97003887  0.24170784     0.09900
H1119       H  0.32106362  0.91314093  0.24914474     0.11000
H1120       H  0.24399134  0.92194287  0.27307081     0.16800
C1121       C  0.18526602  0.40591020  0.32757211    -0.01400
C1122       C  0.21886775  0.39602165  0.32665290     0.07200
C1123       C  0.23070835  0.36839923  0.33129186    -0.07400
C1124       C  0.20971518  0.35031005  0.33659990     0.04600
C1125       C  0.17534274  0.35939239  0.33741213    -0.14600
C1126       C  0.16446302  0.38836133  0.33293830    -0.07900
C1127       C  0.24193464  0.41463977  0.32101817     0.05600
C1128       C  0.24566201  0.44921832  0.32203714    -0.09000
C1129       C  0.26518417  0.46801939  0.31657990     0.00600
C1130       C  0.28279562  0.45212253  0.31002908     0.00400
C1131       C  0.27957756  0.41734853  0.30912390    -0.12600
C1132       C  0.25928389  0.39873176  0.31447369     0.00900
C1133       C  0.26521845  0.50379996  0.31767464     0.40200
C1134       C  0.25547341  0.36354000  0.31289824     0.36800
C1135       C  0.17109632  0.43403295  0.32302397     0.36600
C1136       C  0.22466865  0.32263353  0.34113704     0.37300
N1137       N  0.26489091  0.53249777  0.31851865    -0.43500
N1138       N  0.25221305  0.33532449  0.31167704    -0.43900
N1139       N  0.23722103  0.30051875  0.34469180    -0.41300
N1140       N  0.15960711  0.45659813  0.31942752    -0.42700
H1141       H  0.13969043  0.39874939  0.33375149     0.13400
H1142       H  0.25674671  0.36102021  0.33081380     0.09900
H1143       H  0.23263030  0.46179730  0.32704939     0.11000
H1144       H  0.29251814  0.40463918  0.30412169     0.16800
C1145       C  0.98452895  0.38305369  0.33823483    -0.01400
C1146       C  0.00802239  0.35758460  0.33646276     0.07200
C1147       C  0.99634757  0.32717587  0.33339629    -0.07400
C1148       C  0.96223837  0.32036171  0.33318055     0.04600
C1149       C  0.93902695  0.34310333  0.33688491    -0.14600
C1150       C  0.95033665  0.37615334  0.33798863    -0.07900
C1151       C  0.04458580  0.36107459  0.33800634     0.05600
C1152       C  0.05638100  0.36738304  0.34607958    -0.09000
C1153       C  0.09053973  0.36444641  0.34815639     0.00600
C1154       C  0.11402301  0.35321920  0.34206955     0.00400
C1155       C  0.10137008  0.34898630  0.33385883    -0.12600
C1156       C  0.06785537  0.35386485  0.33178021     0.00900
C1157       C  0.09879942  0.37093546  0.35672355     0.40200
C1158       C  0.05791142  0.35130867  0.32316163     0.36800
C1159       C  0.99489675  0.41589474  0.34069733     0.36600
C1160       C  0.95247320  0.29070495  0.32878524     0.37300
N1161       N  0.10385384  0.37612787  0.36369101    -0.43500
N1162       N  0.04996164  0.34964502  0.31624891    -0.43900
N1163       N  0.94502779  0.26694100  0.32520558    -0.41300
N1164       N  0.00324057  0.44216817  0.34271419    -0.42700
H1165       H  0.93295377  0.39561579  0.33984313     0.13400
H1166       H  0.01404140  0.30816824  0.33135988     0.09900
H1167       H  0.03849017  0.37320580  0.35091528     0.11000
H1168       H  0.11810186  0.34116249  0.32894542     0.16800
C1169       C  0.85793322  0.36147920  0.31941246    -0.01400
C1170       C  0.84025432  0.39071476  0.32163721     0.07200
C1171       C  0.84312871  0.40230347  0.32977693    -0.07400
C1172       C  0.86294761  0.38554524  0.33573896     0.04600
C1173       C  0.87934672  0.35436974  0.33380590    -0.14600
C1174       C  0.87763430  0.34424154  0.32537011    -0.07900
C1175       C  0.82018431  0.41117922  0.31555049     0.05600
C1176       C  0.78912070  0.39988560  0.31282788    -0.09000
C1177       C  0.76798208  0.42025079  0.30786651     0.00600
C1178       C  0.77785873  0.45281155  0.30551279     0.00400
C1179       C  0.80936853  0.46362994  0.30811470    -0.12600
C1180       C  0.83040738  0.44321799  0.31304901     0.00900
C1181       C  0.73592260  0.40734561  0.30554185     0.40200
C1182       C  0.86257147  0.45560954  0.31546113     0.36800
C1183       C  0.85713736  0.34935176  0.31097856     0.36600
C1184       C  0.86800405  0.40376948  0.34335465     0.37300
N1185       N  0.71019417  0.39704190  0.30368804    -0.43500
N1186       N  0.88840637  0.46542292  0.31738793    -0.43900
N1187       N  0.87197748  0.41915089  0.34934430    -0.41300
N1188       N  0.85652051  0.33966874  0.30421139    -0.42700
H1189       H  0.89177813  0.32242203  0.32340087     0.13400
H1190       H  0.83063506  0.42562864  0.33140360     0.09900
H1191       H  0.78096603  0.37541011  0.31478464     0.11000
H1192       H  0.81766379  0.48824144  0.30631712     0.16800
C1193       C  0.88071983  0.17047401  0.34934539    -0.01400
C1194       C  0.88307156  0.18702521  0.34164246     0.07200
C1195       C  0.88511784  0.16756409  0.33444430    -0.07400
C1196       C  0.88524810  0.13237849  0.33479868     0.04600
C1197       C  0.88268631  0.11495906  0.34257681    -0.14600
C1198       C  0.88139140  0.13555931  0.34975974    -0.07900
C1199       C  0.88701106  0.22418860  0.34106928     0.05600
C1200       C  0.91346152  0.23875778  0.34531654    -0.09000
C1201       C  0.91879479  0.27322882  0.34500333     0.00600
C1202       C  0.89776220  0.29502439  0.34006581     0.00400
C1203       C  0.87067063  0.27978378  0.33593243    -0.12600
C1204       C  0.86546849  0.24508572  0.33634015     0.00900
C1205       C  0.94719586  0.28468444  0.34967853     0.40200
C1206       C  0.83704010  0.23158435  0.33207319     0.36800
C1207       C  0.87833108  0.18856033  0.35706596     0.36600
C1208       C  0.88944956  0.11544590  0.32696999     0.37300
N1209       N  0.97035203  0.29287924  0.35341742    -0.43500
N1210       N  0.81430809  0.22062731  0.32865446    -0.43900
N1211       N  0.89263101  0.10321235  0.32051328    -0.41300
N1212       N  0.87646886  0.20227700  0.36336067    -0.42700
H1213       H  0.88326680  0.12519591  0.35594127     0.13400
H1214       H  0.88792134  0.17999897  0.32848533     0.09900
H1215       H  0.93044238  0.22285278  0.34890141     0.11000
H1216       H  0.85237803  0.29470575  0.33257525     0.16800
C1217       C  0.77308747  0.97304427  0.32483593    -0.01400
C1218       C  0.79141468  0.00130311  0.32239441     0.07200
C1219       C  0.79183765  0.00983901  0.31390340    -0.07400
C1220       C  0.77499167  0.99084493  0.30791849     0.04600
C1221       C  0.75686864  0.96235396  0.31034569    -0.14600
C1222       C  0.75608261  0.95411800  0.31886516    -0.07900
C1223       C  0.81261166  0.02048348  0.32840952     0.05600
C1224       C  0.83648331  0.00322032  0.33322990    -0.09000
C1225       C  0.85929771  0.01994359  0.33831651     0.00600
C1226       C  0.86025624  0.05566700  0.33841032     0.00400
C1227       C  0.83356210  0.07249077  0.33421479    -0.12600
C1228       C  0.81069617  0.05556605  0.32915085     0.00900
C1229       C  0.88233682  0.99870450  0.34288671     0.40200
C1230       C  0.78513910  0.07493488  0.32486981     0.36800
C1231       C  0.77132879  0.96277512  0.33344102     0.36600
C1232       C  0.77777474  0.00081802  0.29931495     0.37300
N1233       N  0.89963886  0.97963926  0.34630071    -0.43500
N1234       N  0.76479040  0.09065602  0.32144314    -0.43900
N1235       N  0.78019542  0.00881510  0.29242118    -0.41300
N1236       N  0.77017369  0.95430384  0.34032390    -0.42700
H1237       H  0.74231334  0.93254066  0.32089830     0.13400
H1238       H  0.80633917  0.03095026  0.31188722     0.09900
H1239       H  0.83818174  0.97621071  0.33279963     0.11000
H1240       H  0.83001903  0.09917162  0.33479249     0.16800
C1241       C  0.04439333  0.08959502  0.33004263    -0.01400
C1242       C  0.02948924  0.06325297  0.33430459     0.07200
C1243       C  0.04986400  0.03807705  0.33779591    -0.07400
C1244       C  0.08463267  0.04164186  0.33816290     0.04600
C1245       C  0.09893366  0.07278195  0.33588720    -0.14600
C1246       C  0.07865460  0.09410438  0.33081068    -0.07900
C1247       C  0.99361725  0.06513439  0.33641940     0.05600
C1248       C  0.97014721  0.04849635  0.33161651    -0.09000
C1249       C  0.93585302  0.05102976  0.33335239     0.00600
C1250       C  0.92431682  0.06997020  0.34036759     0.00400
C1251       C  0.94886675  0.08791209  0.34480810    -0.12600
C1252       C  0.98271185  0.08527980  0.34301384     0.00900
C1253       C  0.91451655  0.03585565  0.32726742     0.40200
C1254       C  0.00591461  0.10310894  0.34818743     0.36800
C1255       C  0.02472474  0.11325076  0.32519473     0.36600
C1256       C  0.10390923  0.01450981  0.34182098     0.37300
N1257       N  0.89857567  0.02366674  0.32212623    -0.43500
N1258       N  0.02431634  0.11737710  0.35237544    -0.43900
N1259       N  0.11865417  0.99226339  0.34475673    -0.41300
N1260       N  0.00908260  0.13194927  0.32120570    -0.42700
H1261       H  0.08872413  0.11595463  0.32785825     0.13400
H1262       H  0.03848080  0.01660244  0.34068154     0.09900
H1263       H  0.97870468  0.03410903  0.32631599     0.11000
H1264       H  0.94161652  0.10324157  0.35005168     0.16800
C1265       C  0.15679875  0.25354660  0.33223040    -0.01400
C1266       C  0.14177714  0.23196657  0.33805223     0.07200
C1267       C  0.12887040  0.24620040  0.34529562    -0.07400
C1268       C  0.12873109  0.28050134  0.34665058     0.04600
C1269       C  0.14769765  0.30218961  0.34145401    -0.14600
C1270       C  0.16037746  0.28781737  0.33404105    -0.07900
C1271       C  0.13918210  0.19463990  0.33705171     0.05600
C1272       C  0.16661056  0.17527124  0.33438370    -0.09000
C1273       C  0.16610387  0.14001088  0.33435039     0.00600
C1274       C  0.13845708  0.12271510  0.33781734     0.00400
C1275       C  0.11226249  0.14305488  0.34098441    -0.12600
C1276       C  0.11083115  0.17755311  0.33980898     0.00900
C1277       C  0.19536192  0.12369922  0.33102147     0.40200
C1278       C  0.07920390  0.19446700  0.34118575     0.36800
C1279       C  0.16733236  0.24169810  0.32418920     0.36600
C1280       C  0.11070142  0.29128181  0.35394433     0.37300
N1281       N  0.21919291  0.11158308  0.32824768    -0.43500
N1282       N  0.05379185  0.20786381  0.34222685    -0.43900
N1283       N  0.09629167  0.29783959  0.35994789    -0.41300
N1284       N  0.17563287  0.23231485  0.31771587    -0.42700
H1285       H  0.17202048  0.30337756  0.32941966     0.13400
H1286       H  0.11832053  0.23028153  0.35003695     0.09900
H1287       H  0.18905576  0.18767704  0.33245050     0.11000
H1288       H  0.09111087  0.13151147  0.34391957     0.16800
C1289       C  0.25088793  0.00825258  0.31489294    -0.01400
C1290       C  0.22488279  0.99501442  0.31969329     0.07200
C1291       C  0.21969760  0.96042926  0.31948811    -0.07400
C1292       C  0.23974280  0.93915229  0.31460566     0.04600
C1293       C  0.26573180  0.95243730  0.30973279    -0.14600
C1294       C  0.27088535  0.98709195  0.31000662    -0.07900
C1295       C  0.20224098  0.01699606  0.32472143     0.05600
C1296       C  0.18241837  0.04114411  0.32065430    -0.09000
C1297       C  0.16104557  0.06275479  0.32505159     0.00600
C1298       C  0.15924414  0.06121474  0.33393812     0.00400
C1299       C  0.17831444  0.03536903  0.33786656    -0.12600
C1300       C  0.19976579  0.01398846  0.33341719     0.00900
C1301       C  0.14300675  0.08732011  0.32010373     0.40200
C1302       C  0.21935393  0.98934049  0.33796651     0.36800
C1303       C  0.25803675  0.04345715  0.31498353     0.36600
C1304       C  0.23301996  0.90387029  0.31480654     0.37300
N1305       N  0.12971145  0.10690944  0.31586188    -0.43500
N1306       N  0.23503199  0.96961623  0.34162928    -0.43900
N1307       N  0.22751259  0.87560608  0.31501650    -0.41300
N1308       N  0.26395855  0.07163167  0.31502027    -0.42700
H1309       H  0.29062253  0.99788450  0.30635242     0.13400
H1310       H  0.19964570  0.95003149  0.32311076     0.09900
H1311       H  0.18378002  0.04322359  0.31393347     0.11000
H1312       H  0.17628175  0.03085633  0.34446733     0.16800
C1313       C  0.18408440  0.31898276  0.36567925    -0.01400
C1314       C  0.18864135  0.35023221  0.36963460     0.07200
C1315       C  0.18490230  0.37897435  0.36454861    -0.07400
C1316       C  0.17298235  0.37705533  0.35623488     0.04600
C1317       C  0.16642784  0.34547286  0.35251656    -0.14600
C1318       C  0.17750099  0.31744379  0.35720196    -0.07900
C1319       C  0.19689803  0.35192239  0.37888405     0.05600
C1320       C  0.21512693  0.32536307  0.38248043    -0.09000
C1321       C  0.20845865  0.31464445  0.39059331     0.00600
C1322       C  0.18876581  0.33536396  0.39600723     0.00400
C1323       C  0.18383417  0.36861650  0.39313866    -0.12600
C1324       C  0.18382332  0.37588814  0.38452135     0.00900
C1325       C  0.22155984  0.28175898  0.39259948     0.40200
C1326       C  0.16811684  0.40676467  0.38181505     0.36800
C1327       C  0.18353864  0.28727017  0.37004732     0.36600
C1328       C  0.16769990  0.40815421  0.35181273     0.37300
N1329       N  0.23210798  0.25508385  0.39385101    -0.43500
N1330       N  0.15551674  0.43171530  0.37975130    -0.43900
N1331       N  0.16389096  0.43352441  0.34842373    -0.41300
N1332       N  0.18301972  0.26166761  0.37341816    -0.42700
H1333       H  0.17977286  0.29300695  0.35446179     0.13400
H1334       H  0.19082795  0.40321552  0.36701787     0.09900
H1335       H  0.23103665  0.30996856  0.37857562     0.11000
H1336       H  0.17402511  0.38726722  0.39738549     0.16800
C1337       C  0.15179741  0.10418008  0.38044877    -0.01400
C1338       C  0.14584316  0.07491020  0.37595544     0.07200
C1339       C  0.14208578  0.04496972  0.38034670    -0.07400
C1340       C  0.14431059  0.04369638  0.38908816     0.04600
C1341       C  0.15065239  0.07315359  0.39382198    -0.14600
C1342       C  0.15306902  0.10331890  0.38914428    -0.07900
C1343       C  0.14273016  0.07548516  0.36668927     0.05600
C1344       C  0.17060240  0.08269932  0.36190739    -0.09000
C1345       C  0.16878479  0.08498103  0.35319271     0.00600
C1346       C  0.13809406  0.07968713  0.34882512     0.00400
C1347       C  0.10975792  0.07461423  0.35394027    -0.12600
C1348       C  0.11210424  0.07107158  0.36262048     0.00900
C1349       C  0.19975362  0.09219509  0.34914699     0.40200
C1350       C  0.08241233  0.06363834  0.36725745     0.36800
C1351       C  0.15541201  0.13600024  0.37629487     0.36600
C1352       C  0.14003255  0.01131691  0.39285205     0.37300
N1353       N  0.22580603  0.09723653  0.34643136    -0.43500
N1354       N  0.05873871  0.05726899  0.37097043    -0.43900
N1355       N  0.13675169  0.98459359  0.39545567    -0.41300
N1356       N  0.15859195  0.16156965  0.37303416    -0.42700
H1357       H  0.15408117  0.12733347  0.39211899     0.13400
H1358       H  0.13731781  0.02231918  0.37689622     0.09900
H1359       H  0.19418893  0.08665629  0.36505234     0.11000
H1360       H  0.08498225  0.07434982  0.35132872     0.16800
C1361       C  0.19488335  0.15703668  0.40577095    -0.01400
C1362       C  0.17048466  0.17843933  0.40915775     0.07200
C1363       C  0.14214550  0.16464421  0.41270340    -0.07400
C1364       C  0.13602354  0.13036462  0.41207365     0.04600
C1365       C  0.15706228  0.10968232  0.40702532    -0.14600
C1366       C  0.18843911  0.12294782  0.40491457    -0.07900
C1367       C  0.17243660  0.21524908  0.40827899     0.05600
C1368       C  0.15576797  0.23043548  0.40157970    -0.09000
C1369       C  0.15661886  0.26498614  0.40031265     0.00600
C1370       C  0.17512019  0.28581684  0.40581337     0.00400
C1371       C  0.19124330  0.26981853  0.41267030    -0.12600
C1372       C  0.19015853  0.23509437  0.41388064     0.00900
C1373       C  0.13845267  0.27807293  0.39317798     0.40200
C1374       C  0.20656930  0.22038344  0.42105765     0.36800
C1375       C  0.22582969  0.16990103  0.40269698     0.36600
C1376       C  0.10982035  0.11764188  0.41725097     0.37300
N1377       N  0.12385219  0.28823563  0.38744481    -0.43500
N1378       N  0.21963859  0.20852095  0.42681710    -0.43900
N1379       N  0.08900379  0.10778186  0.42151024    -0.41300
N1380       N  0.25068919  0.18031942  0.40028961    -0.42700
H1381       H  0.20665948  0.10728634  0.40177640     0.13400
H1382       H  0.12457241  0.18085425  0.41591852     0.09900
H1383       H  0.14193799  0.21504448  0.39728079     0.11000
H1384       H  0.20343031  0.28422709  0.41741319     0.16800
C1385       C  0.88025102  0.31530415  0.37977536    -0.01400
C1386       C  0.88745958  0.34655925  0.37616566     0.07200
C1387       C  0.89752191  0.37222934  0.38145121    -0.07400
C1388       C  0.90580101  0.36585035  0.38982120     0.04600
C1389       C  0.90303657  0.33294901  0.39325569    -0.14600
C1390       C  0.88670897  0.30934996  0.38823165    -0.07900
C1391       C  0.88894289  0.35111201  0.36690041     0.05600
C1392       C  0.86209964  0.34167734  0.36185641    -0.09000
C1393       C  0.86551249  0.33818169  0.35320317     0.00600
C1394       C  0.89685409  0.34346678  0.34928133     0.00400
C1395       C  0.92276317  0.35507941  0.35446595    -0.12600
C1396       C  0.91860976  0.36056945  0.36294798     0.00900
C1397       C  0.83615081  0.32910550  0.34857348     0.40200
C1398       C  0.94602910  0.37556906  0.36731781     0.36800
C1399       C  0.86811902  0.28797199  0.37487211     0.36600
C1400       C  0.92074758  0.39297105  0.39428865     0.37300
N1401       N  0.81225231  0.32227804  0.34495029    -0.43500
N1402       N  0.96816346  0.38839087  0.37056502    -0.43900
N1403       N  0.93299768  0.41523637  0.39760859    -0.41300
N1404       N  0.85811572  0.26620776  0.37093490    -0.42700
H1405       H  0.88004887  0.28529556  0.39071548     0.13400
H1406       H  0.90144038  0.39691233  0.37886735     0.09900
H1407       H  0.83848196  0.33607740  0.36473515     0.11000
H1408       H  0.94765153  0.35823391  0.35222493     0.16800
C1409       C  0.00401453  0.33289445  0.41252744    -0.01400
C1410       C  0.02621252  0.33612056  0.40578673     0.07200
C1411       C  0.01277552  0.33385235  0.39776122    -0.07400
C1412       C  0.97857634  0.33215880  0.39623788     0.04600
C1413       C  0.95559982  0.32895512  0.40296365    -0.14600
C1414       C  0.97006741  0.32688251  0.41103420    -0.07900
C1415       C  0.06353511  0.33947482  0.40661267     0.05600
C1416       C  0.08181744  0.32149902  0.41266394    -0.09000
C1417       C  0.11684411  0.32101509  0.41273126     0.00600
C1418       C  0.13518680  0.33307362  0.40572809     0.00400
C1419       C  0.11599628  0.35119782  0.39973223    -0.12600
C1420       C  0.08186983  0.35752805  0.40068751     0.00900
C1421       C  0.13266827  0.30748039  0.42012975     0.40200
C1422       C  0.06649114  0.38332597  0.39554071     0.36800
C1423       C  0.01458668  0.33713335  0.42104049     0.36600
C1424       C  0.97014814  0.33065940  0.38755059     0.37300
N1425       N  0.14445323  0.29698200  0.42621188    -0.43500
N1426       N  0.05439031  0.40430501  0.39149846    -0.43900
N1427       N  0.96520139  0.32819906  0.38049472    -0.41300
N1428       N  0.02283082  0.34063739  0.42788506    -0.42700
H1429       H  0.95415006  0.32246158  0.41633485     0.13400
H1430       H  0.02944272  0.33300742  0.39247927     0.09900
H1431       H  0.06906755  0.30727715  0.41736585     0.11000
H1432       H  0.12610471  0.36053118  0.39406995     0.16800
C1433       C  0.90410749  0.08995581  0.38308555    -0.01400
C1434       C  0.87840187  0.07103103  0.37959549     0.07200
C1435       C  0.85535623  0.05646468  0.38494173    -0.07400
C1436       C  0.85897996  0.05823132  0.39364716     0.04600
C1437       C  0.88801865  0.07280067  0.39724246    -0.14600
C1438       C  0.90859518  0.09071986  0.39170262    -0.07900
C1439       C  0.87695158  0.06485296  0.37044047     0.05600
C1440       C  0.90467714  0.04985301  0.36668598    -0.09000
C1441       C  0.90797601  0.04879156  0.35802979     0.00600
C1442       C  0.88305803  0.06430738  0.35277487     0.00400
C1443       C  0.85236560  0.07274007  0.35666300    -0.12600
C1444       C  0.84967487  0.07450455  0.36537895     0.00900
C1445       C  0.93699295  0.03060936  0.35510707     0.40200
C1446       C  0.82004101  0.08935465  0.36893366     0.36800
C1447       C  0.92683690  0.10835352  0.37793727     0.36600
C1448       C  0.83122339  0.04637852  0.39837696     0.37300
N1449       N  0.96044506  0.01576476  0.35299163    -0.43500
N1450       N  0.79642616  0.10137255  0.37183495    -0.43900
N1451       N  0.80828919  0.03696926  0.40195781    -0.41300
N1452       N  0.94504002  0.12316481  0.37383336    -0.42700
H1453       H  0.92996973  0.10380153  0.39408788     0.13400
H1454       H  0.83452884  0.04322270  0.38229067     0.09900
H1455       H  0.92460963  0.03982787  0.37061010     0.11000
H1456       H  0.83187949  0.08245196  0.35289077     0.16800
C1457       C  0.98826629  0.05443768  0.41503937    -0.01400
C1458       C  0.00569372  0.04723769  0.40768702     0.07200
C1459       C  0.98799846  0.03667084  0.40070621    -0.07400
C1460       C  0.95318840  0.03837426  0.40054274     0.04600
C1461       C  0.93576559  0.05424483  0.40720388    -0.14600
C1462       C  0.95336001  0.05649512  0.41484391    -0.07900
C1463       C  0.04177859  0.05336570  0.40688655     0.05600
C1464       C  0.06491431  0.03075334  0.41030646    -0.09000
C1465       C  0.09931987  0.03537572  0.40946902     0.00600
C1466       C  0.11150277  0.06455424  0.40529567     0.00400
C1467       C  0.08714463  0.08643800  0.40169744    -0.12600
C1468       C  0.05306172  0.08131150  0.40250435     0.00900
C1469       C  0.11977612  0.00786636  0.41249640     0.40200
C1470       C  0.03004668  0.10553581  0.39887919     0.36800
C1471       C  0.00567736  0.06317775  0.42257434     0.36600
C1472       C  0.93685798  0.02143718  0.39378529     0.37300
N1473       N  0.13510440  0.98503497  0.41493766    -0.43500
N1474       N  0.01167873  0.12497854  0.39597160    -0.43900
N1475       N  0.92426157  0.00729163  0.38838905    -0.41300
N1476       N  0.01973103  0.07022483  0.42860007    -0.42700
H1477       H  0.94043436  0.06499281  0.42035494     0.13400
H1478       H  0.00149996  0.02784900  0.39529556     0.09900
H1479       H  0.05587186  0.00874403  0.41348176     0.11000
H1480       H  0.09492072  0.10848560  0.39834481     0.16800
C1481       C  0.89514862  0.24178675  0.41450656    -0.01400
C1482       C  0.90758466  0.21648294  0.40930869     0.07200
C1483       C  0.92316331  0.22546628  0.40196323    -0.07400
C1484       C  0.92695136  0.25869773  0.39962388     0.04600
C1485       C  0.91313308  0.28539261  0.40451856    -0.14600
C1486       C  0.89857400  0.27558679  0.41221065    -0.07900
C1487       C  0.90525472  0.18005269  0.41106539     0.05600
C1488       C  0.87432616  0.16472698  0.41043701    -0.09000
C1489       C  0.87192831  0.12993312  0.40944419     0.00600
C1490       C  0.90115418  0.10899558  0.40914750     0.00400
C1491       C  0.93207296  0.12549709  0.40997779    -0.12600
C1492       C  0.93421186  0.15982985  0.41120643     0.00900
C1493       C  0.83879408  0.11712858  0.40858569     0.40200
C1494       C  0.96696638  0.17411251  0.41188168     0.36800
C1495       C  0.87961847  0.23367972  0.42231128     0.36600
C1496       C  0.94450051  0.26232928  0.39191088     0.37300
N1497       N  0.81160075  0.10827556  0.40808580    -0.43500
N1498       N  0.99326515  0.18531620  0.41237272    -0.43900
N1499       N  0.95833255  0.26090366  0.38562816    -0.41300
N1500       N  0.86711977  0.22715908  0.42856421    -0.42700
H1501       H  0.89025072  0.29403255  0.41665272     0.13400
H1502       H  0.93270992  0.20579358  0.39794272     0.09900
H1503       H  0.85193523  0.18029022  0.41016915     0.11000
H1504       H  0.95551426  0.11278181  0.40894135     0.16800
C1505       C  0.27357303  0.42155086  0.06541322    -0.01400
C1506       C  0.29907387  0.43355577  0.07059819     0.07200
C1507       C  0.30358968  0.46809269  0.07121663    -0.07400
C1508       C  0.28307807  0.49074149  0.06679756     0.04600
C1509       C  0.25728504  0.47887223  0.06162513    -0.14600
C1510       C  0.25288307  0.44415951  0.06101792    -0.07900
C1511       C  0.32037301  0.41066998  0.07574008     0.05600
C1512       C  0.34264214  0.38852830  0.07191594    -0.09000
C1513       C  0.36326968  0.36692351  0.07664506     0.00600
C1514       C  0.36419365  0.36893673  0.08554293     0.00400
C1515       C  0.33744636  0.38739375  0.08908585    -0.12600
C1516       C  0.31698063  0.40909504  0.08439834     0.00900
C1517       C  0.37938493  0.34041575  0.07205983     0.40200
C1518       C  0.29179560  0.42878016  0.08861208     0.36800
C1519       C  0.26769453  0.38619517  0.06469272     0.36600
C1520       C  0.28834141  0.52597533  0.06796489     0.37300
N1521       N  0.39064301  0.31902857  0.06808527    -0.43500
N1522       N  0.27173272  0.44468930  0.09198548    -0.43900
N1523       N  0.29250028  0.55422407  0.06892278    -0.41300
N1524       N  0.26318034  0.35782324  0.06413974    -0.42700
H1525       H  0.23325277  0.43459691  0.05708203     0.13400
H1526       H  0.32303627  0.47737660  0.07525646     0.09900
H1527       H  0.34328165  0.38751430  0.06517525     0.11000
H1528       H  0.33003967  0.38382971  0.09539251     0.16800
C1529       C  0.19372880  0.47751523  0.01184572    -0.01400
C1530       C  0.20648878  0.49985169  0.00591625     0.07200
C1531       C  0.21859715  0.53066792  0.00853530    -0.07400
C1532       C  0.21823362  0.53952246  0.01695433     0.04600
C1533       C  0.20504585  0.51737672  0.02294005    -0.14600
C1534       C  0.19308809  0.48637622  0.02026257    -0.07900
C1535       C  0.20617421  0.49209146  0.99690913     0.05600
C1536       C  0.18380283  0.50965747  0.99170457    -0.09000
C1537       C  0.18112759  0.50186864  0.98324959     0.00600
C1538       C  0.20140499  0.47605658  0.97986009     0.00400
C1539       C  0.22477244  0.45952996  0.98503885    -0.12600
C1540       C  0.22718403  0.46719964  0.99349696     0.00900
C1541       C  0.15736190  0.52083211  0.97826433     0.40200
C1542       C  0.25116853  0.44892080  0.99855387     0.36800
C1543       C  0.18051340  0.44570602  0.00939054     0.36600
C1544       C  0.23217574  0.57119689  0.01922741     0.37300
N1545       N  0.13828677  0.53608730  0.97429475    -0.43500
N1546       N  0.27038287  0.43402393  0.00255952    -0.43900
N1547       N  0.24353143  0.59654596  0.02101804    -0.41300
N1548       N  0.17012665  0.42019807  0.00737546    -0.42700
H1549       H  0.18269282  0.46915086  0.02473361     0.13400
H1550       H  0.22848008  0.54782773  0.00396914     0.09900
H1551       H  0.16787203  0.52907487  0.99430935     0.11000
H1552       H  0.24059368  0.43980900  0.98254016     0.16800
C1553       C  0.20662766  0.28965868  0.94414522    -0.01400
C1554       C  0.20993061  0.26776488  0.95099884     0.07200
C1555       C  0.21373501  0.28116174  0.95898453    -0.07400
C1556       C  0.21239937  0.31580431  0.96027517     0.04600
C1557       C  0.20627908  0.33777368  0.95347029    -0.14600
C1558       C  0.20432714  0.32419606  0.94543041    -0.07900
C1559       C  0.20822709  0.23087496  0.95005787     0.05600
C1560       C  0.23624475  0.21094129  0.95204731    -0.09000
C1561       C  0.23487880  0.17595513  0.95182224     0.00600
C1562       C  0.20476691  0.16020381  0.94962711     0.00400
C1563       C  0.17690397  0.18039384  0.94751148    -0.12600
C1564       C  0.17839164  0.21531981  0.94770825     0.00900
C1565       C  0.26451173  0.15712667  0.95415485     0.40200
C1566       C  0.14857347  0.23465120  0.94578930     0.36800
C1567       C  0.20621806  0.27730302  0.93572867     0.36600
C1568       C  0.21708857  0.32771029  0.96865341     0.37300
N1569       N  0.28833202  0.14215782  0.95604064    -0.43500
N1570       N  0.12470818  0.25014658  0.94423262    -0.43900
N1571       N  0.22120755  0.33693099  0.97538578    -0.41300
N1572       N  0.20622362  0.26755260  0.92896666    -0.42700
H1573       H  0.20083802  0.34059981  0.94009638     0.13400
H1574       H  0.21710821  0.26440271  0.96425847     0.09900
H1575       H  0.25917475  0.22281949  0.95389624     0.11000
H1576       H  0.15357843  0.16889506  0.94583477     0.16800
C1577       C  0.31158599  0.00195273  0.06105624    -0.01400
C1578       C  0.29825101  0.02002094  0.06782766     0.07200
C1579       C  0.26382369  0.01901347  0.06923238    -0.07400
C1580       C  0.24285796  0.99999534  0.06418729     0.04600
C1581       C  0.25614715  0.98163188  0.05740864    -0.14600
C1582       C  0.29060971  0.98314568  0.05593212    -0.07900
C1583       C  0.31974385  0.03923965  0.07367850     0.05600
C1584       C  0.33985434  0.06475156  0.07064168    -0.09000
C1585       C  0.36096368  0.08270072  0.07592803     0.00600
C1586       C  0.36164294  0.07637249  0.08469523     0.00400
C1587       C  0.34117939  0.05018578  0.08757738    -0.12600
C1588       C  0.32070162  0.03201928  0.08224883     0.00900
C1589       C  0.38178768  0.10722638  0.07202964     0.40200
C1590       C  0.30217671  0.00472914  0.08572780     0.36800
C1591       C  0.34688827  0.00140300  0.05939971     0.36600
C1592       C  0.20795236  0.99951363  0.06628280     0.37300
N1593       N  0.39824013  0.12674696  0.06877849    -0.43500
N1594       N  0.28741552  0.98289657  0.08854661    -0.43900
N1595       N  0.18002634  0.99914733  0.06801351    -0.41300
N1596       N  0.37519145  0.00106322  0.05808062    -0.42700
H1597       H  0.30136139  0.96934043  0.05079063     0.13400
H1598       H  0.25327827  0.03296512  0.07438122     0.09900
H1599       H  0.33932183  0.07048566  0.06404119     0.11000
H1600       H  0.34200830  0.04192630  0.09397390     0.16800
C1601       C  0.23349545  0.69442104  0.04605522    -0.01400
C1602       C  0.21100595  0.71507815  0.05048345     0.07200
C1603       C  0.18772893  0.69993556  0.05572855    -0.07400
C1604       C  0.18564993  0.66492400  0.05630269     0.04600
C1605       C  0.20708281  0.64425027  0.05149290    -0.14600
C1606       C  0.23142461  0.65960042  0.04660408    -0.07900
C1607       C  0.20996451  0.75216545  0.04918968     0.05600
C1608       C  0.20420461  0.76474769  0.04112773    -0.09000
C1609       C  0.20338411  0.79918804  0.03949106     0.00600
C1610       C  0.20818857  0.82218222  0.04603140     0.00400
C1611       C  0.21337563  0.80960414  0.05413497    -0.12600
C1612       C  0.21438195  0.77503024  0.05574938     0.00900
C1613       C  0.19606828  0.81003825  0.03108639     0.40200
C1614       C  0.22065398  0.76368054  0.06415594     0.36800
C1615       C  0.25873534  0.70834390  0.04077781     0.36600
C1616       C  0.16067970  0.65119864  0.06169462     0.37300
N1617       N  0.19006877  0.81864153  0.02435096    -0.43500
N1618       N  0.22563316  0.75468169  0.07090798    -0.43900
N1619       N  0.14065691  0.64035695  0.06604101    -0.41300
N1620       N  0.27887614  0.71942770  0.03650990    -0.42700
H1621       H  0.24844045  0.64436091  0.04295771     0.13400
H1622       H  0.17033332  0.71552625  0.05917162     0.09900
H1623       H  0.20001036  0.74745930  0.03607124     0.11000
H1624       H  0.21685219  0.82683790  0.05923461     0.16800
C1625       C  0.22803467  0.97004286  0.00474329    -0.01400
C1626       C  0.20624698  0.99617445  0.00213287     0.07200
C1627       C  0.18367642  0.00982823  0.00787295    -0.07400
C1628       C  0.18214256  0.99753302  0.01605022     0.04600
C1629       C  0.20373080  0.97096755  0.01864511    -0.14600
C1630       C  0.22660627  0.95776189  0.01289842    -0.07900
C1631       C  0.20497157  0.00768327  0.99329801     0.05600
C1632       C  0.19819094  0.98422194  0.98709972    -0.09000
C1633       C  0.19714552  0.99330080  0.97869094     0.00600
C1634       C  0.20206307  0.02692819  0.97629956     0.00400
C1635       C  0.20820626  0.05062516  0.98253755    -0.12600
C1636       C  0.21005365  0.04124053  0.99096067     0.00900
C1637       C  0.19055374  0.96740112  0.97272031     0.40200
C1638       C  0.21844132  0.06617192  0.99704433     0.36800
C1639       C  0.25218456  0.95537258  0.99916347     0.36600
C1640       C  0.15725540  0.01193477  0.02147344     0.37300
N1641       N  0.18543162  0.94650297  0.96796026    -0.43500
N1642       N  0.22534791  0.08611765  0.00191315    -0.43900
N1643       N  0.13717286  0.02350693  0.02577587    -0.41300
N1644       N  0.27143136  0.94352274  0.99467929    -0.42700
H1645       H  0.24333904  0.93744627  0.01474421     0.13400
H1646       H  0.16647217  0.02953208  0.00587946     0.09900
H1647       H  0.19373383  0.95849474  0.98885499     0.11000
H1648       H  0.21211876  0.07649016  0.98082937     0.16800
C1649       C  0.96364932  0.40893792  0.94664628    -0.01400
C1650       C  0.97910427  0.43959859  0.94820367     0.07200
C1651       C  0.95935824  0.46861634  0.94904672    -0.07400
C1652       C  0.92446692  0.46712687  0.94879970     0.04600
C1653       C  0.90884765  0.43597121  0.94770042    -0.14600
C1654       C  0.92889399  0.40730509  0.94645647    -0.07900
C1655       C  0.01566510  0.44126052  0.94952657     0.05600
C1656       C  0.03558049  0.45637543  0.94350181    -0.09000
C1657       C  0.07040236  0.45656537  0.94438097     0.00600
C1658       C  0.08574495  0.44218558  0.95154451     0.00400
C1659       C  0.06543729  0.42778555  0.95763666    -0.12600
C1660       C  0.03087023  0.42685731  0.95664254     0.00900
C1661       C  0.08956117  0.47092471  0.93773880     0.40200
C1662       C  0.01155512  0.41024495  0.96292870     0.36800
C1663       C  0.98307833  0.37872807  0.94534588     0.36600
C1664       C  0.90556207  0.49768692  0.95008676     0.37300
N1665       N  0.10490186  0.48219587  0.93237578    -0.43500
N1666       N  0.99613499  0.39649391  0.96789844    -0.43900
N1667       N  0.89040632  0.52217123  0.95112272    -0.41300
N1668       N  0.99879935  0.35460441  0.94431999    -0.42700
H1669       H  0.91741343  0.38332760  0.94547395     0.13400
H1670       H  0.97123599  0.49228115  0.95019489     0.09900
H1671       H  0.02392512  0.46724461  0.93799298     0.11000
H1672       H  0.07659327  0.41656807  0.96316452     0.16800
C1673       C  0.76029840  0.45352060  0.07401979    -0.01400
C1674       C  0.73301687  0.43405494  0.07161296     0.07200
C1675       C  0.72259477  0.43477583  0.06327202    -0.07400
C1676       C  0.73808558  0.45509150  0.05738733     0.04600
C1677       C  0.76495931  0.47543978  0.05978807    -0.14600
C1678       C  0.77608930  0.47382252  0.06812266    -0.07900
C1679       C  0.71125911  0.41720287  0.07775990     0.05600
C1680       C  0.67943879  0.43075150  0.07887178    -0.09000
C1681       C  0.65610876  0.41530500  0.08393695     0.00600
C1682       C  0.66323563  0.38306596  0.08759492     0.00400
C1683       C  0.69714528  0.37239178  0.08735870    -0.12600
C1684       C  0.72074135  0.38853033  0.08235408     0.00900
C1685       C  0.62705273  0.43582550  0.08569407     0.40200
C1686       C  0.75374104  0.37402382  0.08163579     0.36800
C1687       C  0.77144091  0.45420966  0.08256864     0.36600
C1688       C  0.72498843  0.45508076  0.04900431     0.37300
N1689       N  0.60426882  0.45317564  0.08694779    -0.43500
N1690       N  0.78016299  0.36228816  0.08103372    -0.43900
N1691       N  0.71440277  0.45511197  0.04229338    -0.41300
N1692       N  0.78028373  0.45455885  0.08943088    -0.42700
H1693       H  0.79677517  0.48896027  0.07009645     0.13400
H1694       H  0.70133588  0.42016040  0.06141215     0.09900
H1695       H  0.67293692  0.45425700  0.07581420     0.11000
H1696       H  0.70486935  0.35023621  0.09082362     0.16800
C1697       C  0.96649523  0.55730553  0.05160397    -0.01400
C1698       C  0.98490304  0.52708733  0.05127185     0.07200
C1699       C  0.96816979  0.49703286  0.05009663    -0.07400
C1700       C  0.93354831  0.49686133  0.04893237     0.04600
C1701       C  0.91515260  0.52739946  0.04887524    -0.14600
C1702       C  0.93200203  0.55723913  0.05041595    -0.07900
C1703       C  0.02177924  0.52692001  0.05120469     0.05600
C1704       C  0.03959462  0.53346232  0.05853364    -0.09000
C1705       C  0.07444384  0.53580380  0.05844397     0.00600
C1706       C  0.09178112  0.53229629  0.05084846     0.00400
C1707       C  0.07370908  0.52498170  0.04359010    -0.12600
C1708       C  0.03915929  0.52204346  0.04372332     0.00900
C1709       C  0.09146641  0.54237324  0.06618044     0.40200
C1710       C  0.02196050  0.51484387  0.03604075     0.36800
C1711       C  0.98259896  0.58890908  0.05276200     0.36600
C1712       C  0.91789054  0.46505000  0.04774297     0.37300
N1713       N  0.10505319  0.54744517  0.07240313    -0.43500
N1714       N  0.00820850  0.50893674  0.02989189    -0.43900
N1715       N  0.90543881  0.43948100  0.04681881    -0.41300
N1716       N  0.99533148  0.61432133  0.05369660    -0.42700
H1717       H  0.91837096  0.58087649  0.05044829     0.13400
H1718       H  0.98237831  0.47374809  0.04986452     0.09900
H1719       H  0.02618357  0.53705877  0.06430449     0.11000
H1720       H  0.08658149  0.52165911  0.03773308     0.16800
C1721       C  0.82124989  0.49015982  0.98648653    -0.01400
C1722       C  0.80059519  0.47446766  0.99234411     0.07200
C1723       C  0.77817845  0.45039156  0.98956704    -0.07400
C1724       C  0.77680923  0.44105662  0.98116316     0.04600
C1725       C  0.79803780  0.45625751  0.97530295    -0.14600
C1726       C  0.81986829  0.48095754  0.97809768    -0.07900
C1727       C  0.80186286  0.48286796  0.00137226     0.05600
C1728       C  0.77347129  0.49674562  0.00517183    -0.09000
C1729       C  0.77387598  0.50599152  0.01358887     0.00600
C1730       C  0.80336248  0.50158189  0.01839034     0.00400
C1731       C  0.83134707  0.48653600  0.01461321    -0.12600
C1732       C  0.83076758  0.47702806  0.00623998     0.00900
C1733       C  0.74357664  0.51973258  0.01707059     0.40200
C1734       C  0.86005381  0.46087014  0.00282730     0.36800
C1735       C  0.84393156  0.51599968  0.98890562     0.36600
C1736       C  0.75418845  0.41503579  0.97884994     0.37300
N1737       N  0.71912756  0.53057185  0.01982250    -0.43500
N1738       N  0.88359795  0.44801926  0.00010659    -0.43900
N1739       N  0.73609131  0.39408006  0.97703684    -0.41300
N1740       N  0.86228539  0.53656107  0.99083359    -0.42700
H1741       H  0.83623029  0.49306619  0.97371935     0.13400
H1742       H  0.76214493  0.43831836  0.99402972     0.09900
H1743       H  0.75096495  0.50073087  0.00150691     0.11000
H1744       H  0.85402831  0.48233664  0.01819238     0.16800
C1745       C  0.70354283  0.00476292  0.06051606    -0.01400
C1746       C  0.71899733  0.02468186  0.06656683     0.07200
C1747       C  0.75382680  0.02394735  0.06724565    -0.07400
C1748       C  0.77327672  0.00314268  0.06212223     0.04600
C1749       C  0.75772047  0.98228296  0.05620371    -0.14600
C1750       C  0.72284195  0.98389113  0.05541831    -0.07900
C1751       C  0.69887941  0.04522038  0.07244122     0.05600
C1752       C  0.67991975  0.02896233  0.07840145    -0.09000
C1753       C  0.65880724  0.04666203  0.08378275     0.00600
C1754       C  0.65596526  0.08235242  0.08335176     0.00400
C1755       C  0.67573306  0.09821953  0.07721296    -0.12600
C1756       C  0.69714442  0.08018870  0.07194897     0.00900
C1757       C  0.64084485  0.02628798  0.08957188     0.40200
C1758       C  0.71636471  0.09811426  0.06588089     0.36800
C1759       C  0.66784379  0.00567350  0.05936924     0.36600
C1760       C  0.80904664  0.00439576  0.06298833     0.37300
N1761       N  0.62795428  0.00770378  0.09398335    -0.43500
N1762       N  0.73187005  0.11247892  0.06103923    -0.43900
N1763       N  0.83770675  0.00560551  0.06368000    -0.41300
N1764       N  0.63923528  0.00653415  0.05845323    -0.42700
H1765       H  0.71046733  0.96856346  0.05084469     0.13400
H1766       H  0.76580716  0.03946310  0.07184913     0.09900
H1767       H  0.68141075  0.00188964  0.07878215     0.11000
H1768       H  0.67444775  0.12488501  0.07621305     0.16800
C1769       C  0.96521739  0.95337478  0.04406603    -0.01400
C1770       C  0.98508813  0.92401407  0.04365232     0.07200
C1771       C  0.96955750  0.89292951  0.04357837    -0.07400
C1772       C  0.93479029  0.89071933  0.04354432     0.04600
C1773       C  0.91476303  0.92020768  0.04329700    -0.14600
C1774       C  0.93045535  0.95128086  0.04375021    -0.07900
C1775       C  0.02205169  0.92496697  0.04328316     0.05600
C1776       C  0.03988038  0.93815838  0.04999093    -0.09000
C1777       C  0.07475919  0.93862548  0.04996044     0.00600
C1778       C  0.09255779  0.92548325  0.04309970     0.00400
C1779       C  0.07453134  0.91238756  0.03637411    -0.12600
C1780       C  0.03967948  0.91205371  0.03641091     0.00900
C1781       C  0.09139292  0.95238530  0.05711430     0.40200
C1782       C  0.02252775  0.89877917  0.02926413     0.36800
C1783       C  0.97980127  0.98594566  0.04476858     0.36600
C1784       C  0.92065947  0.85786135  0.04399303     0.37300
N1785       N  0.10477410  0.96338301  0.06284718    -0.43500
N1786       N  0.00876705  0.88808709  0.02354979    -0.43900
N1787       N  0.90949355  0.83147914  0.04446534    -0.41300
N1788       N  0.99132747  0.01207082  0.04546685    -0.42700
H1789       H  0.91556353  0.97415237  0.04379923     0.13400
H1790       H  0.98476144  0.87024320  0.04358941     0.09900
H1791       H  0.02644913  0.94780628  0.05532301     0.11000
H1792       H  0.08765195  0.90239061  0.03103437     0.16800
C1793       C  0.77931204  0.68991602  0.04915273    -0.01400
C1794       C  0.78895243  0.70965459  0.04229321     0.07200
C1795       C  0.80043756  0.69338870  0.03510547    -0.07400
C1796       C  0.80289227  0.65839572  0.03471450     0.04600
C1797       C  0.79488410  0.63866600  0.04174303    -0.14600
C1798       C  0.78260571  0.65492226  0.04885757    -0.07900
C1799       C  0.78849759  0.74713011  0.04259185     0.05600
C1800       C  0.80620601  0.76327763  0.04893815    -0.09000
C1801       C  0.80831309  0.79825642  0.04916913     0.00600
C1802       C  0.79293915  0.81798670  0.04285908     0.00400
C1803       C  0.77467772  0.80190108  0.03661528    -0.12600
C1804       C  0.77215424  0.76698621  0.03645884     0.00900
C1805       C  0.82802763  0.81294730  0.05568711     0.40200
C1806       C  0.75247598  0.75225457  0.02994160     0.36800
C1807       C  0.76519551  0.70497232  0.05649970     0.36600
C1808       C  0.81280463  0.64354470  0.02692316     0.37300
N1809       N  0.84387902  0.82463641  0.06091535    -0.43500
N1810       N  0.73674166  0.74060159  0.02468711    -0.43900
N1811       N  0.82038224  0.63164350  0.02065201    -0.41300
N1812       N  0.75374592  0.71714348  0.06236173    -0.42700
H1813       H  0.77586694  0.64029509  0.05426504     0.13400
H1814       H  0.80781568  0.70813024  0.02977109     0.09900
H1815       H  0.81928188  0.74840879  0.05362135     0.11000
H1816       H  0.76252870  0.81668566  0.03176434     0.16800
C1817       C  0.03932088  0.02798217  0.95482201    -0.01400
C1818       C  0.02207010  0.03293949  0.94723506     0.07200
C1819       C  0.04040323  0.03738972  0.93990753    -0.07400
C1820       C  0.07532735  0.03893653  0.94014515     0.04600
C1821       C  0.09236032  0.03646774  0.94786487    -0.14600
C1822       C  0.07398138  0.02973826  0.95506919    -0.07900
C1823       C  0.98506992  0.03597161  0.94702703     0.05600
C1824       C  0.96957939  0.06026247  0.95202479    -0.09000
C1825       C  0.93489264  0.06261145  0.95263802     0.00600
C1826       C  0.91472120  0.04129997  0.94783633     0.00400
C1827       C  0.93032456  0.01780567  0.94259293    -0.12600
C1828       C  0.96509896  0.01463528  0.94225240     0.00900
C1829       C  0.92114901  0.08630862  0.95848895     0.40200
C1830       C  0.97950706  0.98805899  0.93733739     0.36800
C1831       C  0.02198421  0.02175657  0.96250693     0.36600
C1832       C  0.09281477  0.04318026  0.93240368     0.37300
N1833       N  0.91044328  0.10507439  0.96327550    -0.43500
N1834       N  0.99080715  0.96651537  0.93343046    -0.43900
N1835       N  0.10677462  0.04637072  0.92618146    -0.41300
N1836       N  0.00811795  0.01701822  0.96867715    -0.42700
H1837       H  0.08658200  0.02698726  0.96102521     0.13400
H1838       H  0.02734921  0.04075329  0.93402984     0.09900
H1839       H  0.98480673  0.07691644  0.95567355     0.11000
H1840       H  0.91533622  0.00103755  0.93892308     0.16800
C1841       C  0.76346455  0.19478843  0.94983332    -0.01400
C1842       C  0.78579358  0.21477335  0.94535081     0.07200
C1843       C  0.81055995  0.19909318  0.94055566    -0.07400
C1844       C  0.81415613  0.16417768  0.94040685     0.04600
C1845       C  0.79226085  0.14407610  0.94505857    -0.14600
C1846       C  0.76672510  0.15988863  0.94961217    -0.07900
C1847       C  0.78612908  0.25181209  0.94626957     0.05600
C1848       C  0.79271896  0.26514245  0.95414323    -0.09000
C1849       C  0.79588305  0.29960006  0.95529014     0.00600
C1850       C  0.79232557  0.32179617  0.94842585     0.00400
C1851       C  0.78527857  0.30834897  0.94055000    -0.12600
C1852       C  0.78231440  0.27377269  0.93942329     0.00900
C1853       C  0.80376222  0.31100574  0.96356491     0.40200
C1854       C  0.77527280  0.26145244  0.93118824     0.36800
C1855       C  0.73738683  0.20948376  0.95484696     0.36600
C1856       C  0.84205815  0.15011459  0.93591582     0.37300
N1857       N  0.81019238  0.31994289  0.97020764    -0.43500
N1858       N  0.76971711  0.25166927  0.92457310    -0.43900
N1859       N  0.86466404  0.13912478  0.93235528    -0.41300
N1860       N  0.71655310  0.22111896  0.95891078    -0.42700
H1861       H  0.74973071  0.14496514  0.95322366     0.13400
H1862       H  0.82821937  0.21429296  0.93722695     0.09900
H1863       H  0.79626861  0.24836691  0.95940844     0.11000
H1864       H  0.78241010  0.32484103  0.93521335     0.16800
C1865       C  0.82208427  0.99261428  0.00516503    -0.01400
C1866       C  0.79931603  0.97966541  0.99935752     0.07200
C1867       C  0.77623641  0.95607659  0.00204856    -0.07400
C1868       C  0.77630800  0.94450811  0.01031136     0.04600
C1869       C  0.80023367  0.95631882  0.01604817    -0.14600
C1870       C  0.82254492  0.98075592  0.01337072    -0.07900
C1871       C  0.80050252  0.98914796  0.99038902     0.05600
C1872       C  0.82962905  0.98202208  0.98588301    -0.09000
C1873       C  0.83228260  0.99101908  0.97747699     0.00600
C1874       C  0.80520245  0.00728065  0.97338925     0.00400
C1875       C  0.77602961  0.01419457  0.97789328    -0.12600
C1876       C  0.77343673  0.00524703  0.98629719     0.00900
C1877       C  0.86366773  0.98485476  0.97336610     0.40200
C1878       C  0.74315541  0.01394522  0.99063089     0.36800
C1879       C  0.84489506  0.01853386  0.00288617     0.36600
C1880       C  0.75212020  0.91992984  0.01260562     0.37300
N1881       N  0.88893345  0.98006145  0.97011474    -0.43500
N1882       N  0.71876187  0.02108603  0.99403720    -0.43900
N1883       N  0.73261596  0.90028678  0.01441293    -0.41300
N1884       N  0.86308232  0.03941628  0.00108274    -0.42700
H1885       H  0.84061315  0.99066910  0.01770128     0.13400
H1886       H  0.75857519  0.94609741  0.99762178     0.09900
H1887       H  0.85055911  0.96968331  0.98898932     0.11000
H1888       H  0.75514960  0.02684665  0.97484449     0.16800
C1889       C  0.92595945  0.69185810  0.59029308    -0.01400
C1890       C  0.89808902  0.70614557  0.58623806     0.07200
C1891       C  0.87695424  0.68538133  0.58176741    -0.07400
C1892       C  0.88094932  0.65040796  0.58209073     0.04600
C1893       C  0.90472221  0.63535127  0.58773145    -0.14600
C1894       C  0.92938568  0.65717004  0.59086504    -0.07900
C1895       C  0.89045740  0.74252941  0.58683888     0.05600
C1896       C  0.89432631  0.76317319  0.57990557    -0.09000
C1897       C  0.89112001  0.79807820  0.58053522     0.00600
C1898       C  0.88240548  0.81359454  0.58826405     0.00400
C1899       C  0.87782059  0.79160372  0.59513097    -0.12600
C1900       C  0.88158106  0.75695761  0.59446390     0.00900
C1901       C  0.89740523  0.81682188  0.57303629     0.40200
C1902       C  0.87777191  0.73666939  0.60185537     0.36800
C1903       C  0.95073196  0.71233743  0.59421714     0.36600
C1904       C  0.86277415  0.63237671  0.57584634     0.37300
N1905       N  0.90206938  0.83058122  0.56681804    -0.43500
N1906       N  0.87503501  0.72039001  0.60777076    -0.43900
N1907       N  0.84841157  0.61887032  0.57062416    -0.41300
N1908       N  0.97052774  0.72878310  0.59736247    -0.42700
H1909       H  0.94998493  0.64717046  0.59455336     0.13400
H1910       H  0.85725943  0.69661526  0.57797668     0.09900
H1911       H  0.90130044  0.75198858  0.57402105     0.11000
H1912       H  0.87384019  0.80074118  0.60133676     0.16800
C1913       C  0.05150683  0.88632509  0.58527496    -0.01400
C1914       C  0.03151491  0.85816668  0.58421595     0.07200
C1915       C  0.04691118  0.82766504  0.58227212    -0.07400
C1916       C  0.08159182  0.82352543  0.58252627     0.04600
C1917       C  0.10207740  0.85040970  0.58527950    -0.14600
C1918       C  0.08638123  0.88248877  0.58550035    -0.07900
C1919       C  0.99484530  0.85894785  0.58566632     0.05600
C1920       C  0.97354414  0.87762097  0.58044948    -0.09000
C1921       C  0.93866828  0.87723684  0.58138310     0.00600
C1922       C  0.92394181  0.85784893  0.58791101     0.00400
C1923       C  0.94647678  0.83893394  0.59300375    -0.12600
C1924       C  0.98094242  0.83966510  0.59203590     0.00900
C1925       C  0.92023680  0.89516079  0.57500160     0.40200
C1926       C  0.00164048  0.82055680  0.59778404     0.36800
C1927       C  0.03678362  0.91877725  0.58688531     0.36600
C1928       C  0.09398623  0.79179920  0.57947229     0.37300
N1929       N  0.90659583  0.90962246  0.56969479    -0.43500
N1930       N  0.01824132  0.80528354  0.60238295    -0.43900
N1931       N  0.10314187  0.76626767  0.57691721    -0.41300
N1932       N  0.02477314  0.94471306  0.58817929    -0.42700
H1933       H  0.10116608  0.90413652  0.58692415     0.13400
H1934       H  0.03146502  0.80653247  0.58076595     0.09900
H1935       H  0.98432455  0.89185783  0.57540858     0.11000
H1936       H  0.93690526  0.82341057  0.59795230     0.16800
C1937       C  0.00009126  0.57351433  0.59496814    -0.01400
C1938       C  0.01552815  0.58691987  0.58792185     0.07200
C1939       C  0.99600422  0.59600930  0.58105093    -0.07400
C1940       C  0.96116526  0.59524559  0.58141601     0.04600
C1941       C  0.94475989  0.58707920  0.58904053    -0.14600
C1942       C  0.96532287  0.57424682  0.59556486    -0.07900
C1943       C  0.05176212  0.59346963  0.58786662     0.05600
C1944       C  0.07313214  0.57340590  0.58314101    -0.09000
C1945       C  0.10785136  0.57632536  0.58378287     0.00600
C1946       C  0.12186946  0.59816239  0.58985072     0.00400
C1947       C  0.09968249  0.62268372  0.59318601    -0.12600
C1948       C  0.06513532  0.61981687  0.59247416     0.00900
C1949       C  0.12689716  0.55850050  0.57760203     0.40200
C1950       C  0.04391263  0.64322484  0.59686816     0.36800
C1951       C  0.01958938  0.55879717  0.60166966     0.36600
C1952       C  0.94339583  0.60515805  0.57394251     0.37300
N1953       N  0.14119096  0.54426689  0.57244540    -0.43500
N1954       N  0.02693684  0.66196078  0.60039652    -0.43900
N1955       N  0.93011007  0.61305802  0.56781733    -0.41300
N1956       N  0.03517498  0.54635803  0.60695322    -0.42700
H1957       H  0.95505492  0.56577709  0.60135917     0.13400
H1958       H  0.00804920  0.60493353  0.57546308     0.09900
H1959       H  0.06257430  0.55516098  0.57896470     0.11000
H1960       H  0.10917818  0.64180431  0.59726972     0.16800
C1961       C  0.18408950  0.68827523  0.59835458    -0.01400
C1962       C  0.17640506  0.70432027  0.59079325     0.07200
C1963       C  0.17084793  0.68493439  0.58374848    -0.07400
C1964       C  0.16905857  0.65004652  0.58432943     0.04600
C1965       C  0.17122976  0.63358030  0.59225225    -0.14600
C1966       C  0.18061176  0.65372692  0.59909992    -0.07900
C1967       C  0.16909498  0.74080107  0.59040381     0.05600
C1968       C  0.18805071  0.76154228  0.58534865    -0.09000
C1969       C  0.18051995  0.79587336  0.58452390     0.00600
C1970       C  0.15219211  0.81018536  0.58868673     0.00400
C1971       C  0.13475455  0.78870235  0.59413460    -0.12600
C1972       C  0.14216752  0.75467709  0.59481446     0.00900
C1973       C  0.20432343  0.81466755  0.57983506     0.40200
C1974       C  0.12016503  0.73407590  0.59963854     0.36800
C1975       C  0.19413717  0.70708124  0.60556764     0.36600
C1976       C  0.16304788  0.63261331  0.57665020     0.37300
N1977       N  0.22443315  0.82870842  0.57613800    -0.43500
N1978       N  0.10248341  0.71745151  0.60344023    -0.43900
N1979       N  0.15873044  0.61988983  0.57029999    -0.41300
N1980       N  0.20241890  0.72206172  0.61133326    -0.42700
H1981       H  0.18358165  0.64377928  0.60527965     0.13400
H1982       H  0.16602533  0.69727706  0.57782651     0.09900
H1983       H  0.20923167  0.75078144  0.58209002     0.11000
H1984       H  0.11349267  0.79834074  0.59755299     0.16800
C1985       C  0.16297920  0.88314404  0.63016491    -0.01400
C1986       C  0.14381809  0.86261586  0.62499277     0.07200
C1987       C  0.12220571  0.84004933  0.62866956    -0.07400
C1988       C  0.11604844  0.84045870  0.63718460     0.04600
C1989       C  0.13379612  0.86243102  0.64256867    -0.14600
C1990       C  0.15893736  0.88185744  0.63884934    -0.07900
C1991       C  0.14385354  0.86491350  0.61572270     0.05600
C1992       C  0.17307149  0.85853594  0.61127932    -0.09000
C1993       C  0.17264080  0.85539676  0.60257093     0.00600
C1994       C  0.14197157  0.85793925  0.59794426     0.00400
C1995       C  0.11293416  0.86502234  0.60268584    -0.12600
C1996       C  0.11386478  0.86962439  0.61127911     0.00900
C1997       C  0.20438675  0.84822930  0.59874744     0.40200
C1998       C  0.08305128  0.87802288  0.61546680     0.36800
C1999       C  0.18544008  0.90713677  0.62668257     0.36600
C2000       C  0.08886058  0.82001567  0.63992863     0.37300
N2001       N  0.23049828  0.84298227  0.59598694    -0.43500
N2002       N  0.05844470  0.88461786  0.61884321    -0.43900
N2003       N  0.06652825  0.80393714  0.64188306    -0.41300
N2004       N  0.20320353  0.92652146  0.62385155    -0.42700
H2005       H  0.17504893  0.89703382  0.64259587     0.13400
H2006       H  0.10817802  0.82335587  0.62473083     0.09900
H2007       H  0.19627255  0.85465372  0.61467028     0.11000
H2008       H  0.08835997  0.86491434  0.60000272     0.16800
C2009       C  0.85562357  0.83430750  0.62961855    -0.01400
C2010       C  0.86215950  0.86496648  0.62565159     0.07200
C2011       C  0.86691050  0.89320050  0.63055175    -0.07400
C2012       C  0.86895929  0.89081558  0.63922576     0.04600
C2013       C  0.86520698  0.85933931  0.64337490    -0.14600
C2014       C  0.85604812  0.83196941  0.63833776    -0.07900
C2015       C  0.86641303  0.86754176  0.61644906     0.05600
C2016       C  0.84041716  0.85840814  0.61116122    -0.09000
C2017       C  0.84496642  0.85610950  0.60253410     0.00600
C2018       C  0.87687576  0.86204904  0.59894421     0.00400
C2019       C  0.90066450  0.87693553  0.60424964    -0.12600
C2020       C  0.89636990  0.87824328  0.61287794     0.00900
C2021       C  0.81666662  0.84510855  0.59779868     0.40200
C2022       C  0.92407435  0.88868961  0.61794461     0.36800
C2023       C  0.85213246  0.80395457  0.62489251     0.36600
C2024       C  0.87678838  0.92118028  0.64359099     0.37300
N2025       N  0.79288120  0.83637395  0.59441468    -0.43500
N2026       N  0.94637019  0.89692732  0.62198489    -0.43900
N2027       N  0.88300869  0.94574891  0.64697893    -0.41300
N2028       N  0.84973662  0.77957190  0.62111925    -0.42700
H2029       H  0.85275390  0.80745490  0.64099195     0.13400
H2030       H  0.87085375  0.91709939  0.62753604     0.09900
H2031       H  0.81666316  0.85184259  0.61383978     0.11000
H2032       H  0.92358860  0.88662968  0.60181347     0.16800
C2033       C  0.95822927  0.90197870  0.65812019    -0.01400
C2034       C  0.98177927  0.88563915  0.65307539     0.07200
C2035       C  0.97085583  0.86154294  0.64748529    -0.07400
C2036       C  0.93762166  0.85212626  0.64710119     0.04600
C2037       C  0.91353111  0.86615794  0.65271581    -0.14600
C2038       C  0.92464739  0.89269008  0.65781562    -0.07900
C2039       C  0.01827103  0.89163216  0.65349397     0.05600
C2040       C  0.03619782  0.88526190  0.66086960    -0.09000
C2041       C  0.07106833  0.88067573  0.66075524     0.00600
C2042       C  0.08813313  0.87858072  0.65300250     0.00400
C2043       C  0.07028687  0.89131653  0.64598206    -0.12600
C2044       C  0.03613172  0.89789250  0.64619844     0.00900
C2045       C  0.08787701  0.87593349  0.66864614     0.40200
C2046       C  0.01968626  0.91009213  0.63873670     0.36800
C2047       C  0.96768381  0.92923165  0.66341915     0.36600
C2048       C  0.93061986  0.82550917  0.64134179     0.37300
N2049       N  0.10081422  0.87256005  0.67505513    -0.43500
N2050       N  0.00666572  0.92007793  0.63276257    -0.43900
N2051       N  0.92641665  0.80393825  0.63670814    -0.41300
N2052       N  0.97516732  0.95122379  0.66763691    -0.42700
H2053       H  0.90741085  0.90706949  0.66153524     0.13400
H2054       H  0.98891857  0.84891150  0.64354128     0.09900
H2055       H  0.02285323  0.88212352  0.66665527     0.11000
H2056       H  0.08247662  0.89579836  0.64012065     0.16800
C2057       C  0.17080112  0.60761727  0.63523526    -0.01400
C2058       C  0.15038561  0.58727861  0.63027700     0.07200
C2059       C  0.12434007  0.57087471  0.63422116    -0.07400
C2060       C  0.11342135  0.58023275  0.64212667     0.04600
C2061       C  0.13448594  0.59921365  0.64746909    -0.14600
C2062       C  0.16408774  0.61125422  0.64375216    -0.07900
C2063       C  0.15281625  0.58530131  0.62093580     0.05600
C2064       C  0.18382044  0.58164043  0.61697835    -0.09000
C2065       C  0.18659765  0.58344657  0.60824536     0.00600
C2066       C  0.15752518  0.58750291  0.60312175     0.00400
C2067       C  0.12681839  0.58363999  0.60724229    -0.12600
C2068       C  0.12398798  0.58632783  0.61582453     0.00900
C2069       C  0.21984372  0.58277495  0.60488510     0.40200
C2070       C  0.09076522  0.59235274  0.61899560     0.36800
C2071       C  0.19769588  0.62657509  0.63177729     0.36600
C2072       C  0.07850231  0.57445552  0.64334361     0.37300
N2073       N  0.24679480  0.58205800  0.60237247    -0.43500
N2074       N  0.06404255  0.59713233  0.62143224    -0.43900
N2075       N  0.05014878  0.56983220  0.64358375    -0.41300
N2076       N  0.21925330  0.64193128  0.62906001    -0.42700
H2077       H  0.18125698  0.62564204  0.64745586     0.13400
H2078       H  0.10957026  0.55347086  0.63068309     0.09900
H2079       H  0.20620362  0.57834853  0.62071105     0.11000
H2080       H  0.10393931  0.57976019  0.60388779     0.16800
C2081       C  0.10634629  0.77442665  0.66015697    -0.01400
C2082       C  0.13581733  0.75680742  0.65811011     0.07200
C2083       C  0.16303780  0.77481924  0.65528399    -0.07400
C2084       C  0.16066830  0.80947369  0.65395940     0.04600
C2085       C  0.12986794  0.82739636  0.65521638    -0.14600
C2086       C  0.10339913  0.80880897  0.65859638    -0.07900
C2087       C  0.13661604  0.71954421  0.65766163     0.05600
C2088       C  0.11368073  0.70440471  0.65239379    -0.09000
C2089       C  0.11169632  0.66971506  0.65183076     0.00600
C2090       C  0.13276682  0.64834289  0.65682293     0.00400
C2091       C  0.15820636  0.66411108  0.66144419    -0.12600
C2092       C  0.15986746  0.69912403  0.66200145     0.00900
C2093       C  0.08665908  0.65743107  0.64619364     0.40200
C2094       C  0.18526954  0.71341368  0.66719870     0.36800
C2095       C  0.07805612  0.75742059  0.66358769     0.36600
C2096       C  0.19027288  0.82546979  0.65096101     0.37300
N2097       N  0.06629056  0.64900213  0.64157904    -0.43500
N2098       N  0.20576235  0.72475332  0.67135015    -0.43900
N2099       N  0.21426690  0.83787718  0.64859948    -0.41300
N2100       N  0.05540796  0.74385999  0.66634684    -0.42700
H2101       H  0.07910798  0.81981122  0.65952603     0.13400
H2102       H  0.18588881  0.76148968  0.65371259     0.09900
H2103       H  0.09681916  0.72003377  0.64869635     0.11000
H2104       H  0.17702240  0.64947774  0.66471445     0.16800
C2105       C  0.89276897  0.56493110  0.63282277    -0.01400
C2106       C  0.87999600  0.58912834  0.62718206     0.07200
C2107       C  0.86238699  0.61632724  0.63051313    -0.07400
C2108       C  0.86467088  0.62444204  0.63894588     0.04600
C2109       C  0.87681697  0.60019790  0.64490961    -0.14600
C2110       C  0.88912137  0.56966794  0.64146404    -0.07900
C2111       C  0.88762112  0.58993551  0.61797758     0.05600
C2112       C  0.88531109  0.56150985  0.61292047    -0.09000
C2113       C  0.89270313  0.56278588  0.60433104     0.00600
C2114       C  0.89862721  0.59405139  0.60021978     0.00400
C2115       C  0.89762890  0.62249467  0.60543200    -0.12600
C2116       C  0.89625643  0.62017536  0.61406596     0.00900
C2117       C  0.89510433  0.53112691  0.60010042     0.40200
C2118       C  0.90609382  0.64925719  0.61873628     0.36800
C2119       C  0.91155466  0.53611411  0.63002115     0.36600
C2120       C  0.86025382  0.65977263  0.64032363     0.37300
N2121       N  0.89723793  0.50541391  0.59687065    -0.43500
N2122       N  0.91441464  0.67243483  0.62242611    -0.43900
N2123       N  0.85748264  0.68856676  0.64069487    -0.41300
N2124       N  0.92668190  0.51302385  0.62777419    -0.42700
H2125       H  0.89863867  0.55025287  0.64560950     0.13400
H2126       H  0.85081036  0.63430200  0.62626328     0.09900
H2127       H  0.87845244  0.53790935  0.61568241     0.11000
H2128       H  0.89867034  0.64750000  0.60308556     0.16800
C2129       C  0.83568988  0.76991714  0.65906145    -0.01400
C2130       C  0.86308753  0.74718197  0.65961647     0.07200
C2131       C  0.89486498  0.76036820  0.65838624    -0.07400
C2132       C  0.90013752  0.79456486  0.65773880     0.04600
C2133       C  0.87309049  0.81689397  0.65571920    -0.14600
C2134       C  0.84074305  0.80349675  0.65666371    -0.07900
C2135       C  0.86083805  0.70986868  0.66125365     0.05600
C2136       C  0.83498162  0.69037229  0.65797132    -0.09000
C2137       C  0.83912455  0.65543465  0.65700310     0.00600
C2138       C  0.87140733  0.64045812  0.65799563     0.00400
C2139       C  0.89402157  0.65888923  0.66287974    -0.12600
C2140       C  0.88778697  0.69214560  0.66499700     0.00900
C2141       C  0.81123250  0.63699171  0.65383540     0.40200
C2142       C  0.90980806  0.70750961  0.67095473     0.36800
C2143       C  0.80243460  0.76029401  0.66125680     0.36600
C2144       C  0.93295731  0.80449184  0.66035411     0.37300
N2145       N  0.78868125  0.62256981  0.65128121    -0.43500
N2146       N  0.92751981  0.71983570  0.67569013    -0.43900
N2147       N  0.95932379  0.81130003  0.66266934    -0.41300
N2148       N  0.77578961  0.75266902  0.66308914    -0.42700
H2149       H  0.81910732  0.81966054  0.65569501     0.13400
H2150       H  0.91664400  0.74402594  0.65838388     0.09900
H2151       H  0.81268908  0.70210081  0.65543785     0.11000
H2152       H  0.91688190  0.64762878  0.66522236     0.16800
C2153       C  0.96517550  0.56617851  0.66334351    -0.01400
C2154       C  0.98847982  0.58893792  0.66030222     0.07200
C2155       C  0.97774390  0.61283370  0.65445079    -0.07400
C2156       C  0.94417769  0.61759892  0.65245895     0.04600
C2157       C  0.91943513  0.59724502  0.65617699    -0.14600
C2158       C  0.93136992  0.56970561  0.66104139    -0.07900
C2159       C  0.02418151  0.58998248  0.66296649     0.05600
C2160       C  0.04595752  0.56255826  0.66182009    -0.09000
C2161       C  0.08051827  0.56739769  0.66091032     0.00600
C2162       C  0.09291790  0.60055251  0.66032688     0.00400
C2163       C  0.07180939  0.62595029  0.66363165    -0.12600
C2164       C  0.03809834  0.62086526  0.66498843     0.00900
C2165       C  0.10131656  0.53821773  0.65946778     0.40200
C2166       C  0.01772861  0.64856512  0.66788778     0.36800
C2167       C  0.97495580  0.53985962  0.66906013     0.36600
C2168       C  0.93669607  0.64536336  0.64695787     0.37300
N2169       N  0.11750000  0.51450569  0.65829724    -0.43500
N2170       N  0.00147156  0.67077654  0.67019415    -0.43900
N2171       N  0.93277852  0.66822835  0.64260926    -0.41300
N2172       N  0.98272667  0.51869091  0.67364057    -0.42700
H2173       H  0.91449459  0.55108795  0.66330824     0.13400
H2174       H  0.99588657  0.62919666  0.65165987     0.09900
H2175       H  0.03591394  0.53799144  0.66076874     0.11000
H2176       H  0.08086213  0.65057526  0.66498862     0.16800
C2177       C  0.19748771  0.54641998  0.66478426    -0.01400
C2178       C  0.19746147  0.55163177  0.67340471     0.07200
C2179       C  0.17598122  0.57591656  0.67669896    -0.07400
C2180       C  0.15441430  0.59498231  0.67157675     0.04600
C2181       C  0.15411236  0.59045344  0.66274446    -0.14600
C2182       C  0.17632467  0.56552893  0.65959288    -0.07900
C2183       C  0.21883114  0.53115495  0.67913822     0.05600
C2184       C  0.25240890  0.53920458  0.68020034    -0.09000
C2185       C  0.27330882  0.52041298  0.68556345     0.00600
C2186       C  0.26061314  0.49270736  0.68997694     0.00400
C2187       C  0.22681531  0.48488353  0.68887365    -0.12600
C2188       C  0.20601947  0.50378564  0.68353539     0.00900
C2189       C  0.30771982  0.52987932  0.68623623     0.40200
C2190       C  0.17169231  0.49436097  0.68253654     0.36800
C2191       C  0.21797587  0.52038865  0.66114076     0.36600
C2192       C  0.13317679  0.61899188  0.67574661     0.37300
N2193       N  0.33528393  0.53762070  0.68673134    -0.43500
N2194       N  0.14418094  0.48688004  0.68169631    -0.43900
N2195       N  0.11680553  0.63814749  0.67931305    -0.41300
N2196       N  0.23417871  0.49941632  0.65820235    -0.42700
H2197       H  0.17659497  0.55918100  0.65307845     0.13400
H2198       H  0.17581554  0.57973449  0.68337521     0.09900
H2199       H  0.26232247  0.56024536  0.67680413     0.11000
H2200       H  0.21649587  0.46384214  0.69218420     0.16800
C2201       C  0.29877455  0.42543976  0.74497915    -0.01400
C2202       C  0.26738391  0.43914032  0.74716955     0.07200
C2203       C  0.24811827  0.45551967  0.74102256    -0.07400
C2204       C  0.25883859  0.45698979  0.73274146     0.04600
C2205       C  0.28937865  0.44152138  0.73043871    -0.14600
C2206       C  0.30932665  0.42646520  0.73668305    -0.07900
C2207       C  0.25428153  0.43695581  0.75582726     0.05600
C2208       C  0.24694995  0.46648932  0.76017053    -0.09000
C2209       C  0.23527965  0.46563125  0.76838697     0.00600
C2210       C  0.23059259  0.43459360  0.77244863     0.00400
C2211       C  0.23715979  0.40506175  0.76797810    -0.12600
C2212       C  0.24865078  0.40597875  0.75976404     0.00900
C2213       C  0.22874582  0.49707040  0.77246630     0.40200
C2214       C  0.25399845  0.37474019  0.75546964     0.36800
C2215       C  0.32080736  0.41065847  0.75116493     0.36600
C2216       C  0.23814270  0.47489386  0.72677677     0.37300
N2217       N  0.22354192  0.52234715  0.77571297    -0.43500
N2218       N  0.25852951  0.34972911  0.75204272    -0.43900
N2219       N  0.22183374  0.48930095  0.72194826    -0.41300
N2220       N  0.33829374  0.39876638  0.75615101    -0.42700
H2221       H  0.33309434  0.41500413  0.73507780     0.13400
H2222       H  0.22435622  0.46685550  0.74268720     0.09900
H2223       H  0.25083053  0.49039349  0.75715672     0.11000
H2224       H  0.23333824  0.38098219  0.77090360     0.16800
C2225       C  0.97061156  0.46633844  0.80430504    -0.01400
C2226       C  0.99176349  0.45662568  0.79772221     0.07200
C2227       C  0.97739051  0.44581659  0.79025575    -0.07400
C2228       C  0.94279635  0.44447112  0.78924681     0.04600
C2229       C  0.92148446  0.45314643  0.79592650    -0.14600
C2230       C  0.93589003  0.46437240  0.80337925    -0.07900
C2231       C  0.02888791  0.45635063  0.79849265     0.05600
C2232       C  0.04438093  0.43684528  0.80472750    -0.09000
C2233       C  0.07917157  0.43332263  0.80517040     0.00600
C2234       C  0.09941523  0.44899634  0.79914651     0.00400
C2235       C  0.08382993  0.46942585  0.79307634    -0.12600
C2236       C  0.04903254  0.47333420  0.79274064     0.00900
C2237       C  0.09309294  0.41287129  0.81180005     0.40200
C2238       C  0.03445410  0.49494638  0.78643225     0.36800
C2239       C  0.98388618  0.47883254  0.81202471     0.36600
C2240       C  0.93022003  0.43349167  0.78129955     0.37300
N2241       N  0.10427622  0.39661044  0.81713368    -0.43500
N2242       N  0.02247854  0.51215635  0.78139542    -0.43900
N2243       N  0.92017108  0.42484283  0.77491712    -0.41300
N2244       N  0.99448614  0.48886266  0.81821717    -0.42700
H2245       H  0.92001968  0.47144211  0.80853567     0.13400
H2246       H  0.99339255  0.43797509  0.78518821     0.09900
H2247       H  0.02915871  0.42356314  0.80915505     0.11000
H2248       H  0.09880222  0.48199170  0.78847134     0.16800
C2249       C  0.76866549  0.53150353  0.67949632    -0.01400
C2250       C  0.79247095  0.51673111  0.67417103     0.07200
C2251       C  0.79685911  0.48187392  0.67433341    -0.07400
C2252       C  0.77868526  0.46187788  0.67984641     0.04600
C2253       C  0.75576808  0.47683575  0.68546175    -0.14600
C2254       C  0.75084417  0.51170187  0.68508579    -0.07900
C2255       C  0.81496272  0.53763868  0.66899873     0.05600
C2256       C  0.83783507  0.55774831  0.67306851    -0.09000
C2257       C  0.85924865  0.57861140  0.66868185     0.00600
C2258       C  0.85873554  0.57986411  0.65975985     0.00400
C2259       C  0.83524526  0.55911155  0.65575316    -0.12600
C2260       C  0.81382746  0.53827917  0.66025278     0.00900
C2261       C  0.88197298  0.59735727  0.67375631     0.40200
C2262       C  0.78983062  0.51880383  0.65576303     0.36800
C2263       C  0.76175027  0.56700915  0.67923302     0.36600
C2264       C  0.78443292  0.42618999  0.67961441     0.37300
N2265       N  0.89997217  0.61134351  0.67811506    -0.43500
N2266       N  0.77051386  0.50327853  0.65216354    -0.43900
N2267       N  0.78893296  0.39756871  0.67939650    -0.41300
N2268       N  0.75606682  0.59543686  0.67896712    -0.42700
H2269       H  0.73299663  0.52369144  0.68918955     0.13400
H2270       H  0.81509248  0.47031086  0.67025726     0.09900
H2271       H  0.83893337  0.55712146  0.67981589     0.11000
H2272       H  0.83230386  0.55960544  0.64907272     0.16800
C2273       C  0.54591292  0.42992349  0.70978285    -0.01400
C2274       C  0.52826099  0.44395135  0.70295796     0.07200
C2275       C  0.54626221  0.45600793  0.69614752    -0.07400
C2276       C  0.58121567  0.45362183  0.69597673     0.04600
C2277       C  0.59893109  0.43890204  0.70275184    -0.14600
C2278       C  0.58078039  0.42766330  0.70964329    -0.07900
C2279       C  0.49107592  0.44549470  0.70279711     0.05600
C2280       C  0.47401430  0.46373978  0.70893182    -0.09000
C2281       C  0.43912941  0.46345285  0.70943369     0.00600
C2282       C  0.42049164  0.44475751  0.70364693     0.00400
C2283       C  0.43765137  0.42729977  0.69737340    -0.12600
C2284       C  0.47247749  0.42760336  0.69688958     0.00900
C2285       C  0.42348760  0.48132096  0.71618567     0.40200
C2286       C  0.48853846  0.40831923  0.69044323     0.36800
C2287       C  0.52871177  0.41646535  0.71687772     0.36600
C2288       C  0.59805324  0.46709665  0.68883517     0.37300
N2289       N  0.41105638  0.49556937  0.72162551    -0.43500
N2290       N  0.50126690  0.39292865  0.68524234    -0.43900
N2291       N  0.61135462  0.47807290  0.68309949    -0.41300
N2292       N  0.51482539  0.40572520  0.72255154    -0.42700
H2293       H  0.59381056  0.41625682  0.71489054     0.13400
H2294       H  0.53289824  0.46725243  0.69092843     0.09900
H2295       H  0.48813009  0.47767173  0.71347364     0.11000
H2296       H  0.42385036  0.41284156  0.69287603     0.16800
C2297       C  0.76915626  0.41190931  0.73900624    -0.01400
C2298       C  0.76347531  0.44120378  0.74366105     0.07200
C2299       C  0.74657889  0.46837351  0.73990810    -0.07400
C2300       C  0.73438740  0.46631348  0.73171730     0.04600
C2301       C  0.73974003  0.43681133  0.72706390    -0.14600
C2302       C  0.75745876  0.40999379  0.73080029    -0.07900
C2303       C  0.77221000  0.44267135  0.75266349     0.05600
C2304       C  0.79862748  0.46245931  0.75536340    -0.09000
C2305       C  0.80800381  0.46317260  0.76380534     0.00600
C2306       C  0.79042345  0.44404057  0.76972212     0.00400
C2307       C  0.76372247  0.42470372  0.76696304    -0.12600
C2308       C  0.75452753  0.42395883  0.75856272     0.00900
C2309       C  0.83660853  0.48248688  0.76611767     0.40200
C2310       C  0.72670902  0.40380144  0.75612159     0.36800
C2311       C  0.78616707  0.38315374  0.74261039     0.36600
C2312       C  0.71445288  0.49385449  0.72848985     0.37300
N2313       N  0.85963646  0.49784286  0.76795543    -0.43500
N2314       N  0.70450056  0.38760761  0.75412554    -0.43900
N2315       N  0.69814391  0.51575493  0.72592681    -0.41300
N2316       N  0.79952986  0.36004572  0.74553714    -0.42700
H2317       H  0.76181863  0.38716263  0.72733820     0.13400
H2318       H  0.74164058  0.49071706  0.74351645     0.09900
H2319       H  0.81238993  0.47678379  0.75083701     0.11000
H2320       H  0.74992567  0.40992079  0.77138820     0.16800
C2321       C  0.81989238  0.20249330  0.80324430    -0.01400
C2322       C  0.80692045  0.22408245  0.79703100     0.07200
C2323       C  0.79363704  0.21044887  0.78974803    -0.07400
C2324       C  0.79397720  0.17584234  0.78846561     0.04600
C2325       C  0.80778313  0.15401039  0.79460307    -0.14600
C2326       C  0.82016284  0.16783936  0.80200968    -0.07900
C2327       C  0.80906366  0.26099848  0.79772055     0.05600
C2328       C  0.84036874  0.27565630  0.79715251    -0.09000
C2329       C  0.84360719  0.31044100  0.79717998     0.00600
C2330       C  0.81488796  0.33149292  0.79774326     0.00400
C2331       C  0.78357211  0.31654533  0.79851969    -0.12600
C2332       C  0.78051370  0.28167062  0.79852833     0.00900
C2333       C  0.87677269  0.32345507  0.79645790     0.40200
C2334       C  0.74793686  0.26753437  0.79947726     0.36800
C2335       C  0.83300118  0.21543416  0.81093595     0.36600
C2336       C  0.78076130  0.16377635  0.78068853     0.37300
N2337       N  0.90344786  0.33365612  0.79588559    -0.43500
N2338       N  0.72190648  0.25606153  0.80028317    -0.43900
N2339       N  0.77025133  0.15405106  0.77445375    -0.41300
N2340       N  0.84342093  0.22590136  0.81710097    -0.42700
H2341       H  0.83065632  0.15161654  0.80680931     0.13400
H2342       H  0.78376736  0.22704010  0.78494074     0.09900
H2343       H  0.86238133  0.25976075  0.79652503     0.11000
H2344       H  0.76129556  0.33210286  0.79902532     0.16800
C2345       C  0.79832368  0.97074312  0.67618832    -0.01400
C2346       C  0.79051560  0.93718328  0.67465237     0.07200
C2347       C  0.76190545  0.92386755  0.67821729    -0.07400
C2348       C  0.74107799  0.94338107  0.68330428     0.04600
C2349       C  0.74885231  0.97715186  0.68494353    -0.14600
C2350       C  0.77764594  0.99035333  0.68129866    -0.07900
C2351       C  0.81133349  0.91579330  0.66913100     0.05600
C2352       C  0.83756168  0.89664464  0.67252044    -0.09000
C2353       C  0.85796766  0.87640366  0.66748009     0.00600
C2354       C  0.85312078  0.87564840  0.65866492     0.00400
C2355       C  0.82453515  0.89320335  0.65553521    -0.12600
C2356       C  0.80459055  0.91364024  0.66058822     0.00900
C2357       C  0.88392656  0.85726847  0.67166069     0.40200
C2358       C  0.77729315  0.93248139  0.65685553     0.36800
C2359       C  0.82732433  0.98553605  0.67251832     0.36600
C2360       C  0.71188635  0.92788692  0.68666844     0.37300
N2361       N  0.90449889  0.84253037  0.67526241    -0.43500
N2362       N  0.75550618  0.94776580  0.65389059    -0.43900
N2363       N  0.68850530  0.91529765  0.68933306    -0.41300
N2364       N  0.85056933  0.99726642  0.66954732    -0.42700
H2365       H  0.78411467  0.01611218  0.68243282     0.13400
H2366       H  0.75573210  0.89809968  0.67697064     0.09900
H2367       H  0.84215114  0.89757786  0.67917062     0.11000
H2368       H  0.81709113  0.89138819  0.64909267     0.16800
C2369       C  0.70756276  0.19462654  0.70630411    -0.01400
C2370       C  0.71185322  0.21185251  0.69871923     0.07200
C2371       C  0.71360364  0.19349562  0.69131769    -0.07400
C2372       C  0.71036062  0.15864614  0.69134204     0.04600
C2373       C  0.70586055  0.14127580  0.69894177    -0.14600
C2374       C  0.70478812  0.15978283  0.70636076    -0.07900
C2375       C  0.71300327  0.24906719  0.69839272     0.05600
C2376       C  0.73807400  0.26562955  0.70277220    -0.09000
C2377       C  0.73807436  0.30060002  0.70328309     0.00600
C2378       C  0.71266260  0.31983457  0.69925957     0.00400
C2379       C  0.68832920  0.30315988  0.69462551    -0.12600
C2380       C  0.68832700  0.26821270  0.69415690     0.00900
C2381       C  0.76347992  0.31568701  0.70834814     0.40200
C2382       C  0.66185261  0.25252232  0.68958842     0.36800
C2383       C  0.70460276  0.21231164  0.71408232     0.36600
C2384       C  0.71095791  0.14174629  0.68343717     0.37300
N2385       N  0.78378764  0.32765479  0.71244565    -0.43500
N2386       N  0.64074190  0.23982796  0.68591356    -0.43900
N2387       N  0.71127001  0.12834160  0.67707791    -0.41300
N2388       N  0.70226272  0.22663843  0.72029077    -0.42700
H2389       H  0.70117295  0.14709490  0.71225224     0.13400
H2390       H  0.71696264  0.20657734  0.68546710     0.09900
H2391       H  0.75723560  0.25106874  0.70600134     0.11000
H2392       H  0.66873186  0.31743072  0.69148615     0.16800
C2393       C  0.76953925  0.00942030  0.73451028    -0.01400
C2394       C  0.75045151  0.02055796  0.74130380     0.07200
C2395       C  0.71720147  0.03053371  0.73997917    -0.07400
C2396       C  0.70322313  0.03101563  0.73195867     0.04600
C2397       C  0.72289420  0.02155946  0.72502824    -0.14600
C2398       C  0.75576674  0.01005027  0.72647471    -0.07900
C2399       C  0.76524500  0.02425656  0.74973948     0.05600
C2400       C  0.78425323  0.05246920  0.75141681    -0.09000
C2401       C  0.79681149  0.05839985  0.75942548     0.00600
C2402       C  0.79061445  0.03549164  0.76597413     0.00400
C2403       C  0.77208457  0.00685033  0.76418430    -0.12600
C2404       C  0.75932806  0.00121428  0.75617927     0.00900
C2405       C  0.81491383  0.08878907  0.76071961     0.40200
C2406       C  0.74007776  0.97171893  0.75471293     0.36800
C2407       C  0.80337173  0.99740291  0.73564190     0.36600
C2408       C  0.66905255  0.04242586  0.73107877     0.37300
N2409       N  0.82927264  0.11326932  0.76170811    -0.43500
N2410       N  0.72463360  0.94806671  0.75354195    -0.43900
N2411       N  0.64164261  0.05157127  0.73042884    -0.41300
N2412       N  0.83043731  0.98755673  0.73653639    -0.42700
H2413       H  0.77110814  0.00217072  0.72128999     0.13400
H2414       H  0.70239243  0.03888626  0.74521918     0.09900
H2415       H  0.78863511  0.07036021  0.74646984     0.11000
H2416       H  0.76713641  0.98890997  0.76907652     0.16800
C2417       C  0.97795001  0.05417414  0.79643094    -0.01400
C2418       C  0.99411921  0.02832145  0.79198711     0.07200
C2419       C  0.97478497  0.00555793  0.78755137    -0.07400
C2420       C  0.93995241  0.00868271  0.78730216     0.04600
C2421       C  0.92361528  0.03450157  0.79178247    -0.14600
C2422       C  0.94306780  0.05675459  0.79639757    -0.07900
C2423       C  0.03116175  0.02590973  0.79151686     0.05600
C2424       C  0.04994242  0.02059049  0.79881074    -0.09000
C2425       C  0.08489241  0.02112600  0.79869456     0.00600
C2426       C  0.10174975  0.02743973  0.79114540     0.00400
C2427       C  0.08281107  0.03090820  0.78378923    -0.12600
C2428       C  0.04794572  0.03022500  0.78391871     0.00900
C2429       C  0.10255274  0.01503145  0.80641745     0.40200
C2430       C  0.02985294  0.03565522  0.77622540     0.36800
C2431       C  0.99670026  0.07953481  0.80064790     0.36600
C2432       C  0.92182945  0.98531933  0.78227474     0.37300
N2433       N  0.11654036  0.00996960  0.81262465    -0.43500
N2434       N  0.01516383  0.03992288  0.77008571    -0.43900
N2435       N  0.90725459  0.96680124  0.77819306    -0.41300
N2436       N  0.01183766  0.09994427  0.80395827    -0.42700
H2437       H  0.93108096  0.07702825  0.79976062     0.13400
H2438       H  0.98706634  0.98568662  0.78410491     0.09900
H2439       H  0.03717245  0.01649660  0.80464316     0.11000
H2440       H  0.09518030  0.03533191  0.77792052     0.16800
C2441       C  0.19163931  0.20325263  0.79197730    -0.01400
C2442       C  0.20472530  0.21515214  0.79952860     0.07200
C2443       C  0.21732211  0.19215988  0.80541223    -0.07400
C2444       C  0.21705334  0.15761907  0.80385637     0.04600
C2445       C  0.20398164  0.14553208  0.79624495    -0.14600
C2446       C  0.19132367  0.16888005  0.79040445    -0.07900
C2447       C  0.20555063  0.25165863  0.80121081     0.05600
C2448       C  0.17539091  0.26908346  0.80244112    -0.09000
C2449       C  0.17419472  0.30406754  0.80257117     0.00600
C2450       C  0.20372610  0.32231864  0.80149815     0.00400
C2451       C  0.23422170  0.30477122  0.80086240    -0.12600
C2452       C  0.23529467  0.26971290  0.80064727     0.00900
C2453       C  0.14222976  0.32049655  0.80371176     0.40200
C2454       C  0.26685149  0.25287016  0.79928073     0.36800
C2455       C  0.17918613  0.22609950  0.78565467     0.36600
C2456       C  0.23069039  0.13543157  0.81016180     0.37300
N2457       N  0.11656188  0.33354848  0.80461744    -0.43500
N2458       N  0.29212047  0.23932660  0.79816039    -0.43900
N2459       N  0.24168439  0.11772819  0.81523022    -0.41300
N2460       N  0.16933919  0.24469110  0.78064136    -0.42700
H2461       H  0.18133417  0.16034434  0.78452392     0.13400
H2462       H  0.22745094  0.20125939  0.81122609     0.09900
H2463       H  0.15250297  0.25526965  0.80296082     0.11000
H2464       H  0.25704942  0.31844178  0.80005081     0.16800
C2465       C  0.19490992  0.98093825  0.67692205    -0.01400
C2466       C  0.20846371  0.95548262  0.67188137     0.07200
C2467       C  0.24310471  0.95064086  0.67165840    -0.07400
C2468       C  0.26428798  0.97005749  0.67652772     0.04600
C2469       C  0.25077136  0.99505923  0.68179886    -0.14600
C2470       C  0.21601453  0.00046814  0.68179621    -0.07900
C2471       C  0.18702125  0.93269504  0.66702847     0.05600
C2472       C  0.16832137  0.94517941  0.66030738    -0.09000
C2473       C  0.14823901  0.92426077  0.65551023     0.00600
C2474       C  0.14743640  0.88910122  0.65715964     0.00400
C2475       C  0.16566512  0.87751362  0.66424140    -0.12600
C2476       C  0.18504036  0.89869082  0.66908535     0.00900
C2477       C  0.12910637  0.94029500  0.64893623     0.40200
C2478       C  0.20144895  0.88517203  0.67641903     0.36800
C2479       C  0.15935630  0.98646790  0.67746816     0.36600
C2480       C  0.29964246  0.96317331  0.67604790     0.37300
N2481       N  0.11434997  0.95401673  0.64369700    -0.43500
N2482       N  0.21433901  0.87435506  0.68232629    -0.43900
N2483       N  0.32796519  0.95755935  0.67565666    -0.41300
N2484       N  0.13085204  0.99081686  0.67791176    -0.42700
H2485       H  0.20511759  0.01951069  0.68576377     0.13400
H2486       H  0.25359222  0.93119582  0.66773682     0.09900
H2487       H  0.16935183  0.97160372  0.65881740     0.11000
H2488       H  0.16421082  0.85194896  0.66635621     0.16800
C2489       C  0.32542683  0.20348527  0.70454692    -0.01400
C2490       C  0.30703054  0.22291305  0.69876677     0.07200
C2491       C  0.29045095  0.20720271  0.69221135    -0.07400
C2492       C  0.29133942  0.17228702  0.69146283     0.04600
C2493       C  0.30903036  0.15256437  0.69741687    -0.14600
C2494       C  0.32618529  0.16873145  0.70385795    -0.07900
C2495       C  0.30575836  0.25976490  0.69938809     0.05600
C2496       C  0.32676217  0.27843160  0.69432177    -0.09000
C2497       C  0.32875213  0.31309335  0.69523051     0.00600
C2498       C  0.30886753  0.32969846  0.70121382     0.00400
C2499       C  0.28751245  0.31086789  0.70621416    -0.12600
C2500       C  0.28589079  0.27614626  0.70535998     0.00900
C2501       C  0.35324625  0.33044115  0.69039136     0.40200
C2502       C  0.26412237  0.25772165  0.71075067     0.36800
C2503       C  0.34411871  0.21875394  0.71117376     0.36600
C2504       C  0.27390058  0.15770867  0.68453849     0.37300
N2505       N  0.37317630  0.34418239  0.68657128    -0.43500
N2506       N  0.24675721  0.24291817  0.71508147    -0.43900
N2507       N  0.25996022  0.14626293  0.67894629    -0.41300
N2508       N  0.35918768  0.23100475  0.71646303    -0.42700
H2509       H  0.34023808  0.15420826  0.70843254     0.13400
H2510       H  0.27670248  0.22229497  0.68769002     0.09900
H2511       H  0.34257415  0.26566904  0.68985689     0.11000
H2512       H  0.27228412  0.32325440  0.71086158     0.16800
C2513       C  0.53832919  0.99830373  0.69798040    -0.01400
C2514       C  0.51889420  0.02661716  0.69563380     0.07200
C2515       C  0.53517025  0.05603565  0.69339552    -0.07400
C2516       C  0.57000699  0.05778788  0.69354698     0.04600
C2517       C  0.58954912  0.02972509  0.69612695    -0.14600
C2518       C  0.57322262  0.00009376  0.69823827    -0.07900
C2519       C  0.48164818  0.02667021  0.69579123     0.05600
C2520       C  0.46532557  0.01900711  0.70324261    -0.09000
C2521       C  0.43046913  0.02041329  0.70378496     0.00600
C2522       C  0.41103745  0.03065607  0.69680361     0.00400
C2523       C  0.42743603  0.03776856  0.68931310    -0.12600
C2524       C  0.46225565  0.03558368  0.68873942     0.00900
C2525       C  0.41562355  0.01167702  0.71164255     0.40200
C2526       C  0.47749283  0.04206046  0.68079773     0.36800
C2527       C  0.52301758  0.96706242  0.70009512     0.36600
C2528       C  0.58472772  0.08923910  0.69133895     0.37300
N2529       N  0.40375335  0.00446937  0.71792787    -0.43500
N2530       N  0.48977526  0.04718699  0.67443729    -0.43900
N2531       N  0.59654971  0.11442978  0.68957117    -0.41300
N2532       N  0.51058701  0.94211944  0.70180472    -0.42700
H2533       H  0.58773351  0.97827295  0.70017585     0.13400
H2534       H  0.52050047  0.07806400  0.69168525     0.09900
H2535       H  0.47995145  0.01233544  0.70871665     0.11000
H2536       H  0.41303285  0.04518635  0.68386143     0.16800
C2537       C  0.28463304  0.00076607  0.73556482    -0.01400
C2538       C  0.26048571  0.02151395  0.73937416     0.07200
C2539       C  0.24195717  0.04419790  0.73445457    -0.07400
C2540       C  0.24802373  0.04754289  0.72592677     0.04600
C2541       C  0.27342085  0.02798091  0.72214123    -0.14600
C2542       C  0.29080229  0.00403745  0.72701596    -0.07900
C2543       C  0.25556026  0.02220366  0.74853687     0.05600
C2544       C  0.26572807  0.05047340  0.75290775    -0.09000
C2545       C  0.25876428  0.05429368  0.76138302     0.00600
C2546       C  0.24043087  0.02968012  0.76565673     0.00400
C2547       C  0.23140737  0.00071413  0.76130162    -0.12600
C2548       C  0.23900528  0.99673382  0.75284243     0.00900
C2549       C  0.27051272  0.08402616  0.76541177     0.40200
C2550       C  0.22878592  0.96678278  0.74865335     0.36800
C2551       C  0.30446690  0.97710899  0.74035581     0.36600
C2552       C  0.22794109  0.07156363  0.72129573     0.37300
N2553       N  0.28024664  0.10788051  0.76857204    -0.43500
N2554       N  0.22085584  0.94266159  0.74530120    -0.43900
N2555       N  0.21174841  0.09084505  0.71762229    -0.41300
N2556       N  0.32039345  0.95804499  0.74416492    -0.42700
H2557       H  0.31031091  0.98879181  0.72423175     0.13400
H2558       H  0.22310230  0.05994608  0.73735119     0.09900
H2559       H  0.27881539  0.06995572  0.74962474     0.11000
H2560       H  0.21775281  0.98133312  0.76445849     0.16800
C2561       C  0.81368263  0.51819680  0.56266607    -0.01400
C2562       C  0.81554126  0.51270145  0.57133154     0.07200
C2563       C  0.79513949  0.48854147  0.57492396    -0.07400
C2564       C  0.77332578  0.46973798  0.57001396     0.04600
C2565       C  0.77107547  0.47561279  0.56132028    -0.14600
C2566       C  0.79148338  0.50000949  0.55778946    -0.07900
C2567       C  0.83885851  0.53188954  0.57666917     0.05600
C2568       C  0.82617355  0.55558592  0.58225078    -0.09000
C2569       C  0.84744146  0.57641191  0.58678056     0.00600
C2570       C  0.88274418  0.57433058  0.58568968     0.00400
C2571       C  0.89491647  0.54848706  0.58044000    -0.12600
C2572       C  0.87355965  0.52773886  0.57599226     0.00900
C2573       C  0.83197358  0.60114623  0.59209253     0.40200
C2574       C  0.88791254  0.50176397  0.57085646     0.36800
C2575       C  0.83435654  0.54243532  0.55861549     0.36600
C2576       C  0.75378739  0.44463468  0.57409331     0.37300
N2577       N  0.81945783  0.62117819  0.59625897    -0.43500
N2578       N  0.89937578  0.48091252  0.56675328    -0.43900
N2579       N  0.73830031  0.42439233  0.57737216    -0.41300
N2580       N  0.85115124  0.56160078  0.55534784    -0.42700
H2581       H  0.79035072  0.50482549  0.55114964     0.13400
H2582       H  0.79662422  0.48405156  0.58157468     0.09900
H2583       H  0.79940507  0.55856038  0.58287952     0.11000
H2584       H  0.92127903  0.54352751  0.57979584     0.16800
C2585       C  0.89211425  0.39313240  0.41825178    -0.01400
C2586       C  0.85783909  0.38813920  0.41933485     0.07200
C2587       C  0.84233929  0.36377407  0.41453702    -0.07400
C2588       C  0.86043300  0.34377921  0.40892742     0.04600
C2589       C  0.89576391  0.34680306  0.40814929    -0.14600
C2590       C  0.91041288  0.37303992  0.41273390    -0.07900
C2591       C  0.83753490  0.40870195  0.42524956     0.05600
C2592       C  0.83437966  0.44332615  0.42396964    -0.09000
C2593       C  0.81540686  0.46351056  0.42934029     0.00600
C2594       C  0.79856647  0.44905181  0.43615182     0.00400
C2595       C  0.80209547  0.41437117  0.43746923    -0.12600
C2596       C  0.82129889  0.39427060  0.43211626     0.00900
C2597       C  0.81451674  0.49906936  0.42779470     0.40200
C2598       C  0.82465765  0.35898593  0.43391025     0.36800
C2599       C  0.90931104  0.41872857  0.42278656     0.36600
C2600       C  0.84157787  0.31992437  0.40422205     0.37300
N2601       N  0.81396096  0.52758525  0.42656865    -0.43500
N2602       N  0.82742919  0.33071397  0.43534873    -0.43900
N2603       N  0.82575728  0.30101863  0.40056779    -0.41300
N2604       N  0.92308290  0.43932898  0.42638697    -0.42700
H2605       H  0.93621135  0.37922358  0.41191267     0.13400
H2606       H  0.81570247  0.36048804  0.41514628     0.09900
H2607       H  0.84686273  0.45466677  0.41873108     0.11000
H2608       H  0.78969019  0.40280240  0.44268568     0.16800
C2609       C  0.71633527  0.45879470  0.48916220    -0.01400
C2610       C  0.74149033  0.46928588  0.49466105     0.07200
C2611       C  0.76959739  0.48501479  0.49140754    -0.07400
C2612       C  0.77272177  0.49053201  0.48280041     0.04600
C2613       C  0.74731952  0.48012414  0.47729593    -0.14600
C2614       C  0.71950466  0.46406967  0.48061196    -0.07900
C2615       C  0.73895771  0.46278398  0.50376213     0.05600
C2616       C  0.73833159  0.42956712  0.50653694    -0.09000
C2617       C  0.73264583  0.42180068  0.51489724     0.00600
C2618       C  0.72789977  0.44771440  0.52076513     0.00400
C2619       C  0.72916749  0.48107581  0.51799384    -0.12600
C2620       C  0.73469690  0.48874922  0.50958052     0.00900
C2621       C  0.73009281  0.38694763  0.51712226     0.40200
C2622       C  0.73465106  0.52334786  0.50700595     0.36800
C2623       C  0.68643023  0.44341192  0.49216896     0.36600
C2624       C  0.80242774  0.50631000  0.47981595     0.37300
N2625       N  0.72788758  0.35899329  0.51886351    -0.43500
N2626       N  0.73463087  0.55107034  0.50493059    -0.43900
N2627       N  0.82631415  0.51886731  0.47743491    -0.41300
N2628       N  0.66246151  0.43109860  0.49457316    -0.42700
H2629       H  0.69953033  0.45629901  0.47652738     0.13400
H2630       H  0.78921515  0.49276920  0.49560006     0.09900
H2631       H  0.74138323  0.40952510  0.50207323     0.11000
H2632       H  0.72554341  0.50124260  0.52239140     0.16800
C2633       C  0.76639418  0.94999644  0.57081856    -0.01400
C2634       C  0.80118207  0.94645302  0.56992261     0.07200
C2635       C  0.81691075  0.96379721  0.56349995    -0.07400
C2636       C  0.79851955  0.98385152  0.55787502     0.04600
C2637       C  0.76341801  0.98698200  0.55863668    -0.14600
C2638       C  0.74788851  0.97004841  0.56521399    -0.07900
C2639       C  0.82125616  0.92283880  0.57521237     0.05600
C2640       C  0.81651330  0.88855807  0.57432329    -0.09000
C2641       C  0.83562284  0.86487158  0.57882379     0.00600
C2642       C  0.86168361  0.87538873  0.58430679     0.00400
C2643       C  0.86422723  0.91038381  0.58553824    -0.12600
C2644       C  0.84507656  0.93378666  0.58096553     0.00900
C2645       C  0.82516675  0.83080642  0.57789760     0.40200
C2646       C  0.85070929  0.96894137  0.58218031     0.36800
C2647       C  0.74927486  0.93341743  0.57749692     0.36600
C2648       C  0.81644215  0.99988552  0.55125021     0.37300
N2649       N  0.81571887  0.80388243  0.57704356    -0.43500
N2650       N  0.85532452  0.99712956  0.58310669    -0.43900
N2651       N  0.83091204  0.01262042  0.54593882    -0.41300
N2652       N  0.73574367  0.92011671  0.58287829    -0.42700
H2653       H  0.72112562  0.97226570  0.56596912     0.13400
H2654       H  0.84364014  0.96092004  0.56274913     0.09900
H2655       H  0.79736741  0.88020798  0.57005837     0.11000
H2656       H  0.88265491  0.91960449  0.58987144     0.16800
C2657       C  0.74862265  0.27110325  0.54625594    -0.01400
C2658       C  0.72117326  0.25108241  0.54436063     0.07200
C2659       C  0.69021312  0.26643342  0.54267277    -0.07400
C2660       C  0.68611847  0.30126494  0.54292749     0.04600
C2661       C  0.71342022  0.32157595  0.54506603    -0.14600
C2662       C  0.74457381  0.30596273  0.54663333    -0.07900
C2663       C  0.72406158  0.21404625  0.54397149     0.05600
C2664       C  0.72508116  0.19541983  0.55137525    -0.09000
C2665       C  0.72452935  0.16035769  0.55124974     0.00600
C2666       C  0.72276493  0.14326506  0.54355409     0.00400
C2667       C  0.72331654  0.16219039  0.53615170    -0.12600
C2668       C  0.72390967  0.19718034  0.53631371     0.00900
C2669       C  0.72556291  0.14290841  0.55912950     0.40200
C2670       C  0.72413474  0.21543517  0.52854879     0.36800
C2671       C  0.78132024  0.25641220  0.54759375     0.36600
C2672       C  0.65380003  0.31517901  0.54072605     0.37300
N2673       N  0.72650423  0.12919996  0.56548400    -0.43500
N2674       N  0.72441735  0.23026576  0.52235453    -0.43900
N2675       N  0.62789652  0.32615116  0.53889417    -0.41300
N2676       N  0.80754980  0.24457834  0.54860830    -0.42700
H2677       H  0.76597136  0.32099994  0.54811328     0.13400
H2678       H  0.66916639  0.25104705  0.54108424     0.09900
H2679       H  0.72553750  0.20839090  0.55728056     0.11000
H2680       H  0.72238689  0.14971663  0.53018805     0.16800
C2681       C  0.78775761  0.97065485  0.42460942    -0.01400
C2682       C  0.81969907  0.98065946  0.42717479     0.07200
C2683       C  0.83167163  0.97064584  0.43502084    -0.07400
C2684       C  0.81239399  0.95111161  0.44033435     0.04600
C2685       C  0.78024943  0.94108670  0.43780637    -0.14600
C2686       C  0.76841108  0.95107137  0.42990920    -0.07900
C2687       C  0.84036912  0.00315065  0.42202787     0.05600
C2688       C  0.84586353  0.03561023  0.42481579    -0.09000
C2689       C  0.86596898  0.05766212  0.42037258     0.00600
C2690       C  0.87884794  0.04841595  0.41241099     0.00400
C2691       C  0.87570077  0.01436609  0.41017542    -0.12600
C2692       C  0.85667366  0.99206942  0.41482356     0.00900
C2693       C  0.87558192  0.08722354  0.42481599     0.40200
C2694       C  0.85507516  0.95767742  0.41222078     0.36800
C2695       C  0.77372512  0.98108081  0.41670952     0.36600
C2696       C  0.82579154  0.94321823  0.44847492     0.37300
N2697       N  0.88321603  0.11046455  0.42858024    -0.43500
N2698       N  0.85403495  0.93003754  0.41018094    -0.43900
N2699       N  0.83661932  0.93712149  0.45500573    -0.41300
N2700       N  0.76200332  0.98921727  0.41041024    -0.42700
H2701       H  0.74378778  0.94380931  0.42788134     0.13400
H2702       H  0.85607061  0.97861293  0.43705229     0.09900
H2703       H  0.83533592  0.04333466  0.43071814     0.11000
H2704       H  0.88748702  0.00525173  0.40457518     0.16800
C2705       C  0.75515639  0.73678815  0.44528156    -0.01400
C2706       C  0.75216440  0.71649427  0.45240822     0.07200
C2707       C  0.74734104  0.73167761  0.46015769    -0.07400
C2708       C  0.74382293  0.76654922  0.46082830     0.04600
C2709       C  0.74469902  0.78693130  0.45358792    -0.14600
C2710       C  0.75123854  0.77154709  0.44590230    -0.07900
C2711       C  0.75201035  0.67939759  0.45180473     0.05600
C2712       C  0.77942437  0.66045884  0.45473586    -0.09000
C2713       C  0.77967653  0.62537730  0.45433938     0.00600
C2714       C  0.75188463  0.60862186  0.45099492     0.00400
C2715       C  0.72476921  0.62788397  0.44794259    -0.12600
C2716       C  0.72453084  0.66280068  0.44837317     0.00900
C2717       C  0.80881526  0.60741638  0.45737968     0.40200
C2718       C  0.69519091  0.68104135  0.44554756     0.36800
C2719       C  0.76216991  0.72235920  0.43725791     0.36600
C2720       C  0.73877621  0.78038114  0.46900985     0.37300
N2721       N  0.83220828  0.59301884  0.45980190    -0.43500
N2722       N  0.67159310  0.69558619  0.44331489    -0.43900
N2723       N  0.73490684  0.79134082  0.47558818    -0.41300
N2724       N  0.76796452  0.71069288  0.43084670    -0.42700
H2725       H  0.75271335  0.78663270  0.44030190     0.13400
H2726       H  0.74546447  0.71613810  0.46567540     0.09900
H2727       H  0.80067480  0.67315583  0.45734290     0.11000
H2728       H  0.70310833  0.61564043  0.44541079     0.16800
C2729       C  0.71232787  0.92683722  0.49193788    -0.01400
C2730       C  0.72632393  0.95834195  0.49332316     0.07200
C2731       C  0.74131967  0.97505313  0.48668538    -0.07400
C2732       C  0.74189612  0.96118926  0.47868432     0.04600
C2733       C  0.72640112  0.93022451  0.47717277    -0.14600
C2734       C  0.71213652  0.91327192  0.48392215    -0.07900
C2735       C  0.72456056  0.97464035  0.50160474     0.05600
C2736       C  0.74500730  0.96272021  0.50810137    -0.09000
C2737       C  0.74286988  0.97647238  0.51609693     0.00600
C2738       C  0.71968908  0.00276752  0.51772153     0.00400
C2739       C  0.69955568  0.01487311  0.51112607    -0.12600
C2740       C  0.70187444  0.00112864  0.50313787     0.00900
C2741       C  0.76412850  0.96225416  0.52251766     0.40200
C2742       C  0.68004899  0.01386664  0.49664238     0.36800
C2743       C  0.69764038  0.90816416  0.49864084     0.36600
C2744       C  0.75874230  0.97936338  0.47222437     0.37300
N2745       N  0.78119049  0.95072680  0.52764457    -0.43500
N2746       N  0.66262942  0.02390194  0.49140331    -0.43900
N2747       N  0.77250989  0.99393346  0.46709108    -0.41300
N2748       N  0.68610426  0.89309990  0.50402981    -0.42700
H2749       H  0.70058319  0.88932729  0.48294949     0.13400
H2750       H  0.75256233  0.99908387  0.48777031     0.09900
H2751       H  0.76243036  0.94227486  0.50693305     0.11000
H2752       H  0.68164687  0.03495330  0.51221617     0.16800
C2753       C  0.24035803  0.50679366  0.56592298    -0.01400
C2754       C  0.23807152  0.49920030  0.57449272     0.07200
C2755       C  0.25198796  0.46891922  0.57742863    -0.07400
C2756       C  0.26958231  0.44730620  0.57208482     0.04600
C2757       C  0.27396141  0.45616144  0.56361150    -0.14600
C2758       C  0.25847479  0.48567538  0.56063499    -0.07900
C2759       C  0.22132530  0.52279905  0.58038144     0.05600
C2760       C  0.19457371  0.51218471  0.58522306    -0.09000
C2761       C  0.17543952  0.53510187  0.58987136     0.00600
C2762       C  0.18154098  0.57011105  0.58930194     0.00400
C2763       C  0.21107828  0.57950615  0.58520355    -0.12600
C2764       C  0.23105864  0.55628942  0.58098070     0.00900
C2765       C  0.14823859  0.52196151  0.59465438     0.40200
C2766       C  0.26211877  0.56723930  0.57749729     0.36800
C2767       C  0.22396698  0.53600956  0.56236582     0.36600
C2768       C  0.28260000  0.41628235  0.57550250     0.37300
N2769       N  0.12645564  0.51123818  0.59845036    -0.43500
N2770       N  0.28713742  0.57585094  0.57475670    -0.43900
N2771       N  0.29275071  0.39132728  0.57826347    -0.41300
N2772       N  0.21091941  0.55951861  0.55955353    -0.42700
H2773       H  0.26068805  0.49255617  0.55413289     0.13400
H2774       H  0.24958843  0.46240536  0.58395028     0.09900
H2775       H  0.18782083  0.48608540  0.58513759     0.11000
H2776       H  0.21951408  0.60496282  0.58537252     0.16800
C2777       C  0.47660775  0.46252313  0.55621108    -0.01400
C2778       C  0.50201134  0.43960854  0.55400668     0.07200
C2779       C  0.49361113  0.40729112  0.55157942    -0.07400
C2780       C  0.46037686  0.39797506  0.55085904     0.04600
C2781       C  0.43455830  0.42125893  0.55271677    -0.14600
C2782       C  0.44315705  0.45312147  0.55562812    -0.07900
C2783       C  0.53733439  0.44907994  0.55318544     0.05600
C2784       C  0.55857125  0.44747961  0.56013191    -0.09000
C2785       C  0.59333493  0.44784190  0.55915652     0.00600
C2786       C  0.60714297  0.44971150  0.55106856     0.00400
C2787       C  0.58546629  0.45448574  0.54424841    -0.12600
C2788       C  0.55095980  0.45391952  0.54523599     0.00900
C2789       C  0.61388805  0.44462495  0.56652374     0.40200
C2790       C  0.52995783  0.45586786  0.53791618     0.36800
C2791       C  0.48417807  0.49617054  0.55866812     0.36600
C2792       C  0.45384440  0.36460582  0.54798348     0.37300
N2793       N  0.63010516  0.44206953  0.57247667    -0.43500
N2794       N  0.51304560  0.45716638  0.53206676    -0.43900
N2795       N  0.44884218  0.33787798  0.54563371    -0.41300
N2796       N  0.49008925  0.52320923  0.56062503    -0.42700
H2797       H  0.42372434  0.47128231  0.55708996     0.13400
H2798       H  0.51324641  0.38964693  0.54989429     0.09900
H2799       H  0.54805004  0.44392554  0.56626306     0.11000
H2800       H  0.59540935  0.45665101  0.53801783     0.16800
C2801       C  0.19755594  0.39191065  0.42121180    -0.01400
C2802       C  0.23193507  0.38631575  0.42238402     0.07200
C2803       C  0.24740539  0.36023421  0.41807795    -0.07400
C2804       C  0.22980952  0.34006149  0.41255405     0.04600
C2805       C  0.19464860  0.34471240  0.41132686    -0.14600
C2806       C  0.17954087  0.37168236  0.41574586    -0.07900
C2807       C  0.25263164  0.40702367  0.42805236     0.05600
C2808       C  0.24549744  0.40779665  0.43658733    -0.09000
C2809       C  0.26576961  0.42518212  0.44218100     0.00600
C2810       C  0.29393087  0.44237583  0.43924571     0.00400
C2811       C  0.30118932  0.44119373  0.43071724    -0.12600
C2812       C  0.28084528  0.42401339  0.42513912     0.00900
C2813       C  0.25779795  0.42358752  0.45091451     0.40200
C2814       C  0.28909469  0.42486142  0.41641173     0.36800
C2815       C  0.18026042  0.41907376  0.42531477     0.36600
C2816       C  0.24972451  0.31435413  0.40866069     0.37300
N2817       N  0.25126743  0.42194493  0.45790363    -0.43500
N2818       N  0.29578788  0.42558138  0.40942394    -0.43900
N2819       N  0.26789782  0.29410975  0.40614275    -0.41300
N2820       N  0.16619064  0.44074021  0.42859017    -0.42700
H2821       H  0.15354733  0.37825501  0.41484941     0.13400
H2822       H  0.27387079  0.35557817  0.41905597     0.09900
H2823       H  0.22439042  0.39413444  0.43891493     0.11000
H2824       H  0.32256882  0.45430977  0.42834915     0.16800
C2825       C  0.51206243  0.47595489  0.45561601    -0.01400
C2826       C  0.52817865  0.49488496  0.44947484     0.07200
C2827       C  0.50888173  0.51275615  0.44360844    -0.07400
C2828       C  0.47391685  0.51297040  0.44397315     0.04600
C2829       C  0.45762743  0.49476182  0.45030295    -0.14600
C2830       C  0.47721755  0.47595334  0.45597177    -0.07900
C2831       C  0.56508333  0.49773497  0.44942306     0.05600
C2832       C  0.58386267  0.48146750  0.44326732    -0.09000
C2833       C  0.61888498  0.48207317  0.44339681     0.00600
C2834       C  0.63566548  0.49971942  0.44973237     0.00400
C2835       C  0.61651097  0.51651671  0.45576775    -0.12600
C2836       C  0.58171601  0.51560218  0.45567013     0.00900
C2837       C  0.63672621  0.46358868  0.43710175     0.40200
C2838       C  0.56351989  0.53305599  0.46209415     0.36800
C2839       C  0.53089614  0.45668955  0.46169992     0.36600
C2840       C  0.45563102  0.53231271  0.43780471     0.37300
N2841       N  0.65093082  0.44858928  0.43206625    -0.43500
N2842       N  0.54887061  0.54684382  0.46725912    -0.43900
N2843       N  0.44102535  0.54783346  0.43285324    -0.41300
N2844       N  0.54611252  0.44140693  0.46658080    -0.42700
H2845       H  0.46534214  0.46172878  0.46084505     0.13400
H2846       H  0.52121183  0.52726349  0.43885800     0.09900
H2847       H  0.57112233  0.46759329  0.43846696     0.11000
H2848       H  0.62871632  0.53034009  0.46066325     0.16800
C2849       C  0.32981830  0.49070977  0.49326874    -0.01400
C2850       C  0.33283056  0.45731933  0.49605103     0.07200
C2851       C  0.33746444  0.43180871  0.49021337    -0.07400
C2852       C  0.34046830  0.43917892  0.48172029     0.04600
C2853       C  0.33838199  0.47272787  0.47892178    -0.14600
C2854       C  0.33231491  0.49810758  0.48476477    -0.07900
C2855       C  0.33254719  0.44852525  0.50504377     0.05600
C2856       C  0.30538452  0.43147049  0.50831380    -0.09000
C2857       C  0.30458371  0.42220003  0.51673924     0.00600
C2858       C  0.33125114  0.43051155  0.52211623     0.00400
C2859       C  0.35858841  0.44737620  0.51875668    -0.12600
C2860       C  0.35959829  0.45594796  0.51029583     0.00900
C2861       C  0.27608672  0.40411507  0.51962867     0.40200
C2862       C  0.38919508  0.47107074  0.50702289     0.36800
C2863       C  0.32458676  0.51777093  0.49904632     0.36600
C2864       C  0.34533254  0.41174394  0.47603916     0.37300
N2865       N  0.25329291  0.38943884  0.52190994    -0.43500
N2866       N  0.41285991  0.48293140  0.50430323    -0.43900
N2867       N  0.34923497  0.38969504  0.47150080    -0.41300
N2868       N  0.32054472  0.53944411  0.50368824    -0.42700
H2869       H  0.33051063  0.52394114  0.48272157     0.13400
H2870       H  0.33950221  0.40608078  0.49233217     0.09900
H2871       H  0.28478244  0.42525755  0.50424655     0.11000
H2872       H  0.37963774  0.45327359  0.52270609     0.16800
C2873       C  0.20564586  0.95408081  0.55999666    -0.01400
C2874       C  0.21893832  0.93412232  0.56651372     0.07200
C2875       C  0.25362378  0.93170155  0.56752648    -0.07400
C2876       C  0.27505601  0.94861673  0.56216677     0.04600
C2877       C  0.26179467  0.96813682  0.55551016    -0.14600
C2878       C  0.22700268  0.97065382  0.55455799    -0.07900
C2879       C  0.19723564  0.91438607  0.57211163     0.05600
C2880       C  0.17777329  0.88934709  0.56869304    -0.09000
C2881       C  0.15891287  0.86821124  0.57371370     0.00600
C2882       C  0.15939040  0.87132526  0.58258399     0.00400
C2883       C  0.17677679  0.89907727  0.58580211    -0.12600
C2884       C  0.19632053  0.91950054  0.58074584     0.00900
C2885       C  0.14074958  0.84295305  0.56934402     0.40200
C2886       C  0.21501755  0.94589594  0.58455760     0.36800
C2887       C  0.17014907  0.95882953  0.55893253     0.36600
C2888       C  0.31039414  0.94614000  0.56384012     0.37300
N2889       N  0.12698666  0.82359563  0.56533512    -0.43500
N2890       N  0.23020737  0.96694017  0.58758996    -0.43900
N2891       N  0.33869021  0.94429515  0.56522422    -0.41300
N2892       N  0.14170852  0.96284238  0.55810222    -0.42700
H2893       H  0.21633575  0.98578531  0.54956576     0.13400
H2894       H  0.26399980  0.91640036  0.57252757     0.09900
H2895       H  0.17808328  0.88564042  0.56201121     0.11000
H2896       H  0.17557602  0.90543720  0.59230530     0.16800
C2897       C  0.30587828  0.17933256  0.53800591    -0.01400
C2898       C  0.30847056  0.19353440  0.54599030     0.07200
C2899       C  0.30946977  0.17233297  0.55297343    -0.07400
C2900       C  0.30918091  0.13747093  0.55209723     0.04600
C2901       C  0.30772060  0.12316507  0.54406270    -0.14600
C2902       C  0.30540839  0.14458828  0.53711778    -0.07900
C2903       C  0.31133250  0.23031442  0.54712643     0.05600
C2904       C  0.28548024  0.25165081  0.54432240    -0.09000
C2905       C  0.28830158  0.28647806  0.54471772     0.00600
C2906       C  0.31736995  0.30071911  0.54813895     0.00400
C2907       C  0.34276195  0.27916431  0.55118205    -0.12600
C2908       C  0.34011994  0.24437564  0.55063582     0.00900
C2909       C  0.26129995  0.30670828  0.54132858     0.40200
C2910       C  0.36810131  0.22368320  0.55328376     0.36800
C2911       C  0.30520811  0.19977861  0.53058077     0.36600
C2912       C  0.31085926  0.11727276  0.55955881     0.37300
N2913       N  0.23970475  0.32286715  0.53856513    -0.43500
N2914       N  0.39056097  0.20706992  0.55536243    -0.43900
N2915       N  0.31222267  0.10120784  0.56556074    -0.41300
N2916       N  0.30462032  0.21607786  0.52461575    -0.42700
H2917       H  0.30426502  0.13420445  0.53090872     0.13400
H2918       H  0.31101359  0.18311269  0.55913597     0.09900
H2919       H  0.26324383  0.24099008  0.54164015     0.11000
H2920       H  0.36533739  0.28947400  0.55376712     0.16800
C2921       C  0.54837922  0.05953269  0.54528447    -0.01400
C2922       C  0.53197843  0.02871823  0.54491671     0.07200
C2923       C  0.55109476  0.99900621  0.54493797    -0.07400
C2924       C  0.58603321  0.99961663  0.54501545     0.04600
C2925       C  0.60254551  0.03057938  0.54505492    -0.14600
C2926       C  0.58321326  0.06020395  0.54539214    -0.07900
C2927       C  0.49511432  0.02710825  0.54397781     0.05600
C2928       C  0.47990644  0.04228141  0.53700546    -0.09000
C2929       C  0.44534852  0.04153570  0.53581170     0.00600
C2930       C  0.42518056  0.02467153  0.54161971     0.00400
C2931       C  0.44053634  0.00942315  0.54858667    -0.12600
C2932       C  0.47507333  0.01054495  0.54980979     0.00900
C2933       C  0.43151417  0.05911495  0.52868679     0.40200
C2934       C  0.48916166  0.99522011  0.55720886     0.36800
C2935       C  0.53001615  0.09088591  0.54546199     0.36600
C2936       C  0.60399274  0.96805474  0.54498108     0.37300
N2937       N  0.42060998  0.07342562  0.52298926    -0.43500
N2938       N  0.50023590  0.98286297  0.56315696    -0.43900
N2939       N  0.61812440  0.94259715  0.54496561    -0.41300
N2940       N  0.51532489  0.11602218  0.54555527    -0.42700
H2941       H  0.59529949  0.08419921  0.54549356     0.13400
H2942       H  0.53864406  0.97521992  0.54466007     0.09900
H2943       H  0.49518870  0.05492826  0.53247364     0.11000
H2944       H  0.42551323  0.99661718  0.55314110     0.16800
C2945       C  0.27123864  0.99492914  0.42605767    -0.01400
C2946       C  0.23892834  0.98643780  0.42350414     0.07200
C2947       C  0.22556453  0.95624682  0.42626827    -0.07400
C2948       C  0.24377618  0.93465631  0.43159031     0.04600
C2949       C  0.27619430  0.94327762  0.43426550    -0.14600
C2950       C  0.28948960  0.97349365  0.43137193    -0.07900
C2951       C  0.21779881  0.00972831  0.41841532     0.05600
C2952       C  0.22252400  0.01202811  0.40981398    -0.09000
C2953       C  0.20233749  0.03324816  0.40482256     0.00600
C2954       C  0.17472546  0.05101736  0.40838586     0.00400
C2955       C  0.17290738  0.05083751  0.41719877    -0.12600
C2956       C  0.19366530  0.03042190  0.42214351     0.00900
C2957       C  0.21345403  0.03830544  0.39640518     0.40200
C2958       C  0.18962677  0.03099191  0.43105983     0.36800
C2959       C  0.28575849  0.02601014  0.42348668     0.36600
C2960       C  0.22792061  0.90457947  0.43437929     0.37300
N2961       N  0.22311173  0.04228509  0.38971004    -0.43500
N2962       N  0.18653207  0.03151203  0.43820838    -0.43900
N2963       N  0.21479843  0.88062687  0.43657603    -0.41300
N2964       N  0.29733089  0.05096108  0.42142827    -0.42700
H2965       H  0.31423784  0.98066258  0.43331911     0.13400
H2966       H  0.20052591  0.94983226  0.42436647     0.09900
H2967       H  0.24271936  0.99773769  0.40701741     0.11000
H2968       H  0.15391143  0.06574919  0.42025838     0.16800
C2969       C  0.30690630  0.73047565  0.45438243    -0.01400
C2970       C  0.33178962  0.71132288  0.45035859     0.07200
C2971       C  0.35595556  0.72783950  0.44568502    -0.07400
C2972       C  0.35618533  0.76289894  0.44517947     0.04600
C2973       C  0.33213507  0.78218047  0.44954008    -0.14600
C2974       C  0.30763512  0.76547666  0.45408258    -0.07900
C2975       C  0.33341942  0.67414082  0.45108092     0.05600
C2976       C  0.32772798  0.65455132  0.44401641    -0.09000
C2977       C  0.32983988  0.61947846  0.44442744     0.00600
C2978       C  0.33799801  0.60330808  0.45205234     0.00400
C2979       C  0.34354431  0.62312440  0.45910798    -0.12600
C2980       C  0.34145518  0.65807005  0.45868054     0.00900
C2981       C  0.32464343  0.60101668  0.43685720     0.40200
C2982       C  0.34897345  0.67690882  0.46606875     0.36800
C2983       C  0.27965965  0.71473277  0.45859402     0.36600
C2984       C  0.38197878  0.77828895  0.44034614     0.37300
N2985       N  0.32052902  0.58636683  0.43076157    -0.43500
N2986       N  0.35511740  0.69186582  0.47200505    -0.43900
N2987       N  0.40258118  0.79058202  0.43643862    -0.41300
N2988       N  0.25756756  0.70217316  0.46188265    -0.42700
H2989       H  0.28862948  0.77982437  0.45732722     0.13400
H2990       H  0.37499171  0.71326280  0.44251160     0.09900
H2991       H  0.32179815  0.66676396  0.43814124     0.11000
H2992       H  0.35002355  0.61131067  0.46499832     0.16800
C2993       C  0.49328150  0.88317922  0.45467598    -0.01400
C2994       C  0.50888895  0.89457882  0.44739819     0.07200
C2995       C  0.48922392  0.90448088  0.44055667    -0.07400
C2996       C  0.45429535  0.90359441  0.44092465     0.04600
C2997       C  0.43848982  0.89238127  0.44826608    -0.14600
C2998       C  0.45850065  0.88229073  0.45506976    -0.07900
C2999       C  0.54573155  0.89697541  0.44699039     0.05600
C3000       C  0.56421546  0.87208336  0.44289381    -0.09000
C3001       C  0.59916490  0.87126950  0.44330791     0.00600
C3002       C  0.61621456  0.89567903  0.44797250     0.00400
C3003       C  0.59747762  0.92165273  0.45165488    -0.12600
C3004       C  0.56261512  0.92247220  0.45118195     0.00900
C3005       C  0.61664475  0.84487505  0.43895805     0.40200
C3006       C  0.54448772  0.94939599  0.45516125     0.36800
C3007       C  0.51258637  0.87183870  0.46178838     0.36600
C3008       C  0.43552130  0.91499859  0.43373613     0.37300
N3009       N  0.63063851  0.82376732  0.43544798    -0.43500
N3010       N  0.52977950  0.97094205  0.45831301    -0.43900
N3011       N  0.42048275  0.92421682  0.42797779    -0.41300
N3012       N  0.52814159  0.86268646  0.46746619    -0.42700
H3013       H  0.44699735  0.87341379  0.46073005     0.13400
H3014       H  0.50121207  0.91334684  0.43495840     0.09900
H3015       H  0.55124470  0.85267435  0.43957005     0.11000
H3016       H  0.60997925  0.94091221  0.45513816     0.16800
C3017       C  0.32096834  0.96431660  0.48503505    -0.01400
C3018       C  0.30577957  0.94381366  0.49103309     0.07200
C3019       C  0.29340154  0.91282412  0.48858571    -0.07400
C3020       C  0.29662920  0.90172275  0.48036342     0.04600
C3021       C  0.31268213  0.92184366  0.47438201    -0.14600
C3022       C  0.32439364  0.95320349  0.47682809    -0.07900
C3023       C  0.30339359  0.95413074  0.49990333     0.05600
C3024       C  0.28526393  0.98323442  0.50190510    -0.09000
C3025       C  0.28534519  0.99588437  0.51001624     0.00600
C3026       C  0.30395527  0.97920861  0.51635766     0.00400
C3027       C  0.32040706  0.94893344  0.51442341    -0.12600
C3028       C  0.32030687  0.93637232  0.50630359     0.00900
C3029       C  0.26660436  0.02634380  0.51153614     0.40200
C3030       C  0.33918778  0.90612781  0.50463118     0.36800
C3031       C  0.33424017  0.99641695  0.48722241     0.36600
C3032       C  0.28434579  0.86904111  0.47837233     0.37300
N3033       N  0.25152644  0.05075337  0.51272385    -0.43500
N3034       N  0.35430773  0.88185120  0.50332401    -0.43900
N3035       N  0.27450949  0.84282937  0.47678358    -0.41300
N3036       N  0.34471410  0.02216887  0.48900243    -0.42700
H3037       H  0.33669403  0.96899413  0.47233757     0.13400
H3038       H  0.28150986  0.89706457  0.49315508     0.09900
H3039       H  0.27164057  0.99659918  0.49704092     0.11000
H3040       H  0.33448815  0.93555134  0.51920037     0.16800
C3041       C  0.31043984  0.94562144  0.91027590    -0.01400
C3042       C  0.31562691  0.94401396  0.91892149     0.07200
C3043       C  0.34018362  0.92211845  0.92206951    -0.07400
C3044       C  0.35898040  0.90130677  0.91680406     0.04600
C3045       C  0.35374383  0.90205197  0.90797426    -0.14600
C3046       C  0.32975818  0.92571013  0.90494914    -0.07900
C3047       C  0.29467119  0.96396510  0.92477953     0.05600
C3048       C  0.26047425  0.95769943  0.92517976    -0.09000
C3049       C  0.23955510  0.97594224  0.93049883     0.00600
C3050       C  0.25280234  0.00124579  0.93560223     0.00400
C3051       C  0.28721819  0.00706256  0.93530887    -0.12600
C3052       C  0.30810852  0.98877400  0.92995560     0.00900
C3053       C  0.20483162  0.96725197  0.93075242     0.40200
C3054       C  0.34306435  0.99650280  0.92972826     0.36800
C3055       C  0.28535224  0.96775320  0.90668406     0.36600
C3056       C  0.38281913  0.87897814  0.92082350     0.37300
N3057       N  0.17704538  0.96013143  0.93095916    -0.43500
N3058       N  0.37107768  0.00274588  0.92956161    -0.43900
N3059       N  0.40159747  0.86118789  0.92418738    -0.41300
N3060       N  0.26503802  0.98524228  0.90381633    -0.42700
H3061       H  0.32550544  0.92934757  0.89837951     0.13400
H3062       H  0.34417449  0.92072004  0.92874340     0.09900
H3063       H  0.25009945  0.93825150  0.92132916     0.11000
H3064       H  0.29780578  0.02630761  0.93918195     0.16800
C3065       C  0.54279692  0.87818243  0.91189452    -0.01400
C3066       C  0.51986693  0.88786644  0.90567460     0.07200
C3067       C  0.53152443  0.89385414  0.89766418    -0.07400
C3068       C  0.56500953  0.88846931  0.89552528     0.04600
C3069       C  0.58880769  0.87703824  0.90168206    -0.14600
C3070       C  0.57629648  0.87237233  0.90985889    -0.07900
C3071       C  0.48308827  0.88676360  0.90681945     0.05600
C3072       C  0.46353234  0.91586985  0.90579427    -0.09000
C3073       C  0.42869816  0.91442325  0.90484698     0.00600
C3074       C  0.41260747  0.88290617  0.90425541     0.00400
C3075       C  0.43262541  0.85435082  0.90635004    -0.12600
C3076       C  0.46707169  0.85600485  0.90751051     0.00900
C3077       C  0.41069583  0.94582861  0.90392425     0.40200
C3078       C  0.48565947  0.82522218  0.90894711     0.36800
C3079       C  0.53252917  0.87385938  0.92041240     0.36600
C3080       C  0.57109539  0.89156395  0.88673273     0.37300
N3081       N  0.39657317  0.97113724  0.90317284    -0.43500
N3082       N  0.50043500  0.80054871  0.91013655    -0.43900
N3083       N  0.57366908  0.89378566  0.87958349    -0.41300
N3084       N  0.52455428  0.87060847  0.92726836    -0.42700
H3085       H  0.59308765  0.86368322  0.91474963     0.13400
H3086       H  0.51355095  0.90077441  0.89284954     0.09900
H3087       H  0.47570263  0.93979183  0.90543910     0.11000
H3088       H  0.42207642  0.82993573  0.90706085     0.16800
C3089       C  0.65969123  0.93351294  0.91564338    -0.01400
C3090       C  0.69331872  0.92409682  0.91679989     0.07200
C3091       C  0.70570695  0.89632261  0.91245067    -0.07400
C3092       C  0.68523921  0.87782358  0.90710404     0.04600
C3093       C  0.65037961  0.88553847  0.90632580    -0.14600
C3094       C  0.63883269  0.91436876  0.91063055    -0.07900
C3095       C  0.71545664  0.94292812  0.92259200     0.05600
C3096       C  0.70591238  0.94672369  0.93093690    -0.09000
C3097       C  0.72456501  0.96589378  0.93650249     0.00600
C3098       C  0.75372467  0.98186123  0.93376358     0.00400
C3099       C  0.76392382  0.97698265  0.92549439    -0.12600
C3100       C  0.74518092  0.95787395  0.91993088     0.00900
C3101       C  0.71343251  0.96794515  0.94500945     0.40200
C3102       C  0.75648227  0.95503801  0.91145643     0.36800
C3103       C  0.64625156  0.96395838  0.91919001     0.36600
C3104       C  0.70116685  0.85054058  0.90272486     0.37300
N3105       N  0.70439809  0.96930134  0.95182314    -0.43500
N3106       N  0.76577018  0.95276370  0.90468074    -0.43900
N3107       N  0.71452621  0.82850240  0.89941740    -0.41300
N3108       N  0.63555398  0.98845950  0.92197924    -0.42700
H3109       H  0.61361341  0.92370028  0.90981737     0.13400
H3110       H  0.73168074  0.88898864  0.91323484     0.09900
H3111       H  0.68355346  0.93472312  0.93310731     0.11000
H3112       H  0.78634790  0.98874224  0.92328909     0.16800
C3113       C  0.38407760  0.71569403  0.90351794    -0.01400
C3114       C  0.35541573  0.73403586  0.90593354     0.07200
C3115       C  0.32850625  0.71593242  0.90915565    -0.07400
C3116       C  0.33048187  0.68084033  0.91035001     0.04600
C3117       C  0.35962898  0.66247319  0.90788185    -0.14600
C3118       C  0.38396852  0.68112330  0.90360390    -0.07900
C3119       C  0.35329644  0.77129789  0.90448302     0.05600
C3120       C  0.36714608  0.78409464  0.89717516    -0.09000
C3121       C  0.37576441  0.81756360  0.89647621     0.00600
C3122       C  0.36461114  0.84150505  0.90247278     0.00400
C3123       C  0.34464878  0.82900982  0.90900966    -0.12600
C3124       C  0.34083562  0.79448034  0.91034034     0.00900
C3125       C  0.39875871  0.82526356  0.88988301     0.40200
C3126       C  0.32547243  0.78387812  0.91797646     0.36800
C3127       C  0.41495890  0.73119706  0.90118207     0.36600
C3128       C  0.30058760  0.66494954  0.91313924     0.37300
N3129       N  0.41768000  0.83056889  0.88466215    -0.43500
N3130       N  0.31310142  0.77558149  0.92411287    -0.43900
N3131       N  0.27619687  0.65276489  0.91531819    -0.41300
N3132       N  0.43980521  0.74330137  0.89932318    -0.42700
H3133       H  0.40462682  0.66815882  0.90062690     0.13400
H3134       H  0.30536417  0.72900789  0.91054087     0.09900
H3135       H  0.37441848  0.76711315  0.89224702     0.11000
H3136       H  0.33302027  0.84558021  0.91342600     0.16800
C3137       C  0.29826418  0.56281938  0.91616288    -0.01400
C3138       C  0.30337508  0.56399422  0.92482292     0.07200
C3139       C  0.32572841  0.58709700  0.92802026    -0.07400
C3140       C  0.34394099  0.60789580  0.92276499     0.04600
C3141       C  0.34118470  0.60500093  0.91393158    -0.14600
C3142       C  0.31626627  0.58367004  0.91087021    -0.07900
C3143       C  0.28474953  0.54215351  0.93065001     0.05600
C3144       C  0.28822202  0.50729757  0.93001961    -0.09000
C3145       C  0.26974981  0.48594325  0.93508633     0.00600
C3146       C  0.24760718  0.49945885  0.94106797     0.00400
C3147       C  0.24477200  0.53438631  0.94179955    -0.12600
C3148       C  0.26295536  0.55565804  0.93666021     0.00900
C3149       C  0.27292660  0.45041430  0.93370460     0.40200
C3150       C  0.25780317  0.59129679  0.93742704     0.36800
C3151       C  0.27446785  0.54043138  0.91254806     0.36600
C3152       C  0.36482750  0.63196794  0.92679279     0.37300
N3153       N  0.27524795  0.42194851  0.93256161    -0.43500
N3154       N  0.25381536  0.61989321  0.93799144    -0.43900
N3155       N  0.38102620  0.65094642  0.93031646    -0.41300
N3156       N  0.25554950  0.52224055  0.90968629    -0.42700
H3157       H  0.31064302  0.58275843  0.90429487     0.13400
H3158       H  0.32908121  0.58879894  0.93470515     0.09900
H3159       H  0.30500746  0.49674409  0.92542734     0.11000
H3160       H  0.22793241  0.54522027  0.94633675     0.16800
C3161       C  0.64457608  0.77729237  0.91039030    -0.01400
C3162       C  0.62783051  0.75584306  0.90488940     0.07200
C3163       C  0.60705594  0.77042517  0.89885136    -0.07400
C3164       C  0.60616208  0.80479531  0.89735953     0.04600
C3165       C  0.62564075  0.82705666  0.90226409    -0.14600
C3166       C  0.64240710  0.81230780  0.90922524    -0.07900
C3167       C  0.63081945  0.71828891  0.90501260     0.05600
C3168       C  0.62356743  0.70000543  0.91221168    -0.09000
C3169       C  0.62067906  0.66493306  0.91206599     0.00600
C3170       C  0.62423509  0.64657452  0.90447131     0.00400
C3171       C  0.63158668  0.66591162  0.89731007    -0.12600
C3172       C  0.63627541  0.70041211  0.89758885     0.00900
C3173       C  0.61314778  0.64912230  0.91989696     0.40200
C3174       C  0.64562763  0.71708090  0.88996459     0.36800
C3175       C  0.66453008  0.76420199  0.91719531     0.36600
C3176       C  0.58553437  0.81492395  0.89039802     0.37300
N3177       N  0.60767247  0.63757106  0.92634487    -0.43500
N3178       N  0.65286625  0.73037619  0.88384572    -0.43900
N3179       N  0.56847856  0.82002574  0.88468992    -0.41300
N3180       N  0.68037407  0.75386414  0.92270128    -0.42700
H3181       H  0.65444191  0.82776439  0.91378964     0.13400
H3182       H  0.59201800  0.75436361  0.89498021     0.09900
H3183       H  0.61872713  0.71329237  0.91794943     0.11000
H3184       H  0.63228626  0.65517783  0.89119933     0.16800
C3185       C  0.45747075  0.63823565  0.91384114    -0.01400
C3186       C  0.47222112  0.60799391  0.91131016     0.07200
C3187       C  0.45222848  0.57970836  0.91084405    -0.07400
C3188       C  0.41735471  0.58307472  0.91147924     0.04600
C3189       C  0.40222220  0.61538146  0.91111432    -0.14600
C3190       C  0.42295885  0.64096346  0.91423545    -0.07900
C3191       C  0.50823238  0.60612342  0.90940290     0.05600
C3192       C  0.53001162  0.58818444  0.91462438    -0.09000
C3193       C  0.56463183  0.58841974  0.91339601     0.00600
C3194       C  0.57830283  0.60666355  0.90653808     0.00400
C3195       C  0.55550343  0.62641777  0.90174538    -0.12600
C3196       C  0.52119327  0.62509722  0.90286009     0.00900
C3197       C  0.58404993  0.57150298  0.91976853     0.40200
C3198       C  0.49953121  0.64266536  0.89702591     0.36800
C3199       C  0.47706300  0.66717327  0.91576210     0.36600
C3200       C  0.40068158  0.55601448  0.91554819     0.37300
N3201       N  0.59854868  0.55777850  0.92505492    -0.43500
N3202       N  0.48195895  0.65641639  0.89235701    -0.43900
N3203       N  0.38800671  0.53460496  0.91913328    -0.41300
N3204       N  0.49268661  0.69044992  0.91722140    -0.42700
H3205       H  0.41273683  0.66436430  0.91647765     0.13400
H3206       H  0.46383606  0.55512193  0.91040215     0.09900
H3207       H  0.51985454  0.57469763  0.91987447     0.11000
H3208       H  0.56459375  0.64156998  0.89666218     0.16800
C3209       C  0.68829377  0.57758260  0.91836707    -0.01400
C3210       C  0.68507133  0.54268645  0.91826226     0.07200
C3211       C  0.66005515  0.52885100  0.91335466    -0.07400
C3212       C  0.63780094  0.54911179  0.90872378     0.04600
C3213       C  0.63991484  0.58476455  0.90895585    -0.14600
C3214       C  0.66664735  0.59798209  0.91362563    -0.07900
C3215       C  0.70630660  0.52026983  0.92358342     0.05600
C3216       C  0.69150604  0.50333114  0.93021477    -0.09000
C3217       C  0.71051325  0.48286955  0.93560559     0.00600
C3218       C  0.74529039  0.47905065  0.93442314     0.00400
C3219       C  0.75986888  0.49531050  0.92760071    -0.12600
C3220       C  0.74074175  0.51570964  0.92220183     0.00900
C3221       C  0.69339290  0.46568094  0.94218138     0.40200
C3222       C  0.75683532  0.53136768  0.91522469     0.36800
C3223       C  0.71302501  0.59323395  0.92352756     0.36600
C3224       C  0.61164414  0.53216143  0.90431751     0.37300
N3225       N  0.67960867  0.45181685  0.94743093    -0.43500
N3226       N  0.76966040  0.54394021  0.90962647    -0.43900
N3227       N  0.59062039  0.51795680  0.90097916    -0.41300
N3228       N  0.73272720  0.60580414  0.92769046    -0.42700
H3229       H  0.67145208  0.62439804  0.91361364     0.13400
H3230       H  0.65743599  0.50192709  0.91329022     0.09900
H3231       H  0.66494083  0.50639758  0.93122861     0.11000
H3232       H  0.78639336  0.49242480  0.92652044     0.16800
C3233       C  0.34676464  0.89964475  0.85930997    -0.01400
C3234       C  0.36534000  0.88384107  0.86567477     0.07200
C3235       C  0.38858595  0.85907217  0.86355517    -0.07400
C3236       C  0.39570586  0.85158131  0.85527668     0.04600
C3237       C  0.37889353  0.86897445  0.84860613    -0.14600
C3238       C  0.35234654  0.89091763  0.85095308    -0.07900
C3239       C  0.36279218  0.89283239  0.87463441     0.05600
C3240       C  0.33605533  0.88162803  0.87935928    -0.09000
C3241       C  0.33776388  0.88078773  0.88810960     0.00600
C3242       C  0.36770868  0.88987936  0.89241331     0.00400
C3243       C  0.39281600  0.90432134  0.88743212    -0.12600
C3244       C  0.39020512  0.90645189  0.87876796     0.00900
C3245       C  0.30918771  0.86776870  0.89238988     0.40200
C3246       C  0.41731136  0.92074570  0.87415555     0.36800
C3247       C  0.32350635  0.92644038  0.86115234     0.36600
C3248       C  0.42215447  0.82718937  0.85409384     0.37300
N3249       N  0.28622727  0.85719182  0.89575071    -0.43500
N3250       N  0.43892539  0.93232953  0.87046354    -0.43900
N3251       N  0.44367876  0.80767267  0.85364360    -0.41300
N3252       N  0.30530397  0.94837022  0.86259102    -0.42700
H3253       H  0.33616692  0.90242759  0.84634321     0.13400
H3254       H  0.40243626  0.84629599  0.86847450     0.09900
H3255       H  0.31458045  0.87151880  0.87619099     0.11000
H3256       H  0.41617351  0.91195605  0.88997909     0.16800
C3257       C  0.32854325  0.88632261  0.82068556    -0.01400
C3258       C  0.32713921  0.92144448  0.82096622     0.07200
C3259       C  0.34556920  0.93762253  0.82712019    -0.07400
C3260       C  0.36528170  0.91967590  0.83290207     0.04600
C3261       C  0.36581973  0.88393729  0.83299413    -0.14600
C3262       C  0.34720351  0.86815724  0.82662207    -0.07900
C3263       C  0.30602729  0.94171085  0.81503952     0.05600
C3264       C  0.27176535  0.93554108  0.81450268    -0.09000
C3265       C  0.25067798  0.95469087  0.80928525     0.00600
C3266       C  0.26370916  0.98118220  0.80449603     0.00400
C3267       C  0.29808683  0.98713275  0.80499604    -0.12600
C3268       C  0.31918780  0.96768466  0.81014573     0.00900
C3269       C  0.21571461  0.94689791  0.80918253     0.40200
C3270       C  0.35436139  0.97456543  0.81017651     0.36800
C3271       C  0.31248373  0.86821229  0.81407286     0.36600
C3272       C  0.38410465  0.93916808  0.83875759     0.37300
N3273       N  0.18772644  0.94049007  0.80913154    -0.43500
N3274       N  0.38253102  0.98017227  0.81020834    -0.43900
N3275       N  0.39864816  0.95519134  0.84346683    -0.41300
N3276       N  0.29980044  0.85362488  0.80876612    -0.42700
H3277       H  0.34839096  0.84142016  0.82580573     0.13400
H3278       H  0.34456333  0.96468407  0.82741702     0.09900
H3279       H  0.26129567  0.91591719  0.81829702     0.11000
H3280       H  0.30865784  0.00706952  0.80132762     0.16800
C3281       C  0.66258770  0.90582646  0.85937565    -0.01400
C3282       C  0.64866021  0.88285458  0.86497995     0.07200
C3283       C  0.62751786  0.85874192  0.86181078    -0.07400
C3284       C  0.62397173  0.85352293  0.85331132     0.04600
C3285       C  0.64064300  0.87419449  0.84741640    -0.14600
C3286       C  0.65750567  0.90209247  0.85072989    -0.07900
C3287       C  0.65478953  0.88197283  0.87417822     0.05600
C3288       C  0.64689394  0.90963047  0.87913500    -0.09000
C3289       C  0.64094542  0.90578575  0.88771909     0.00600
C3290       C  0.64012052  0.87307539  0.89136825     0.00400
C3291       C  0.65454596  0.84701416  0.88658957    -0.12600
C3292       C  0.66208934  0.85128493  0.87818911     0.00900
C3293       C  0.63151278  0.93563365  0.89218310     0.40200
C3294       C  0.67572874  0.82310467  0.87366491     0.36800
C3295       C  0.68297542  0.93268055  0.86228845     0.36600
C3296       C  0.60497594  0.82450664  0.85122138     0.37300
N3297       N  0.62394812  0.96020148  0.89549462    -0.43500
N3298       N  0.68655351  0.80059399  0.87001615    -0.43900
N3299       N  0.58989719  0.80042128  0.85033872    -0.41300
N3300       N  0.69925614  0.95429902  0.86462543    -0.42700
H3301       H  0.66774796  0.92072654  0.84664159     0.13400
H3302       H  0.61482869  0.84234053  0.86611110     0.09900
H3303       H  0.64236076  0.93376458  0.87621491     0.11000
H3304       H  0.65949750  0.82259645  0.88925847     0.16800
C3305       C  0.55324304  0.91145772  0.83641361    -0.01400
C3306       C  0.53089972  0.88625491  0.83432629     0.07200
C3307       C  0.54368135  0.85461799  0.83245309    -0.07400
C3308       C  0.57750247  0.84631179  0.83334588     0.04600
C3309       C  0.60098025  0.87126608  0.83574726    -0.14600
C3310       C  0.58738543  0.90385028  0.83716456    -0.07900
C3311       C  0.49396585  0.88991733  0.83506389     0.05600
C3312       C  0.47377396  0.88130201  0.82829611    -0.09000
C3313       C  0.43987307  0.87419545  0.82933309     0.00600
C3314       C  0.42520603  0.87497804  0.83743116     0.00400
C3315       C  0.44489767  0.88916681  0.84382156    -0.12600
C3316       C  0.47880175  0.89525764  0.84281734     0.00900
C3317       C  0.42220303  0.86350799  0.82199662     0.40200
C3318       C  0.49776623  0.90471486  0.85006925     0.36800
C3319       C  0.54174445  0.94530022  0.83783379     0.36600
C3320       C  0.58397436  0.81092181  0.83267241     0.37300
N3321       N  0.40897283  0.85520564  0.81595571    -0.43500
N3322       N  0.51274940  0.91240512  0.85590181    -0.43900
N3323       N  0.58626278  0.78211957  0.83221453    -0.41300
N3324       N  0.53249455  0.97241130  0.83899617    -0.42700
H3325       H  0.60382229  0.92369219  0.83902662     0.13400
H3326       H  0.52643868  0.83522303  0.83080645     0.09900
H3327       H  0.48517342  0.87775696  0.82225570     0.11000
H3328       H  0.43460836  0.89509877  0.84982282     0.16800
C3329       C  0.66621474  0.92985596  0.82049872    -0.01400
C3330       C  0.70063940  0.93263760  0.82188138     0.07200
C3331       C  0.71528789  0.91441252  0.82841824    -0.07400
C3332       C  0.69652376  0.89362838  0.83357793     0.04600
C3333       C  0.66127151  0.89066974  0.83239798    -0.14600
C3334       C  0.64724694  0.90887364  0.82556083    -0.07900
C3335       C  0.72201205  0.95389402  0.81650196     0.05600
C3336       C  0.71672039  0.98866755  0.81632929    -0.09000
C3337       C  0.73649609  0.00942353  0.81139694     0.00600
C3338       C  0.76223607  0.99539942  0.80646268     0.00400
C3339       C  0.76778048  0.96063966  0.80675569    -0.12600
C3340       C  0.74798363  0.93995279  0.81167480     0.00900
C3341       C  0.73055078  0.04505937  0.81178001     0.40200
C3342       C  0.75424218  0.90433907  0.81148720     0.36800
C3343       C  0.64986184  0.94749819  0.81371294     0.36600
C3344       C  0.71500957  0.87667296  0.84011620     0.37300
N3345       N  0.72586174  0.07362651  0.81213369    -0.43500
N3346       N  0.75927878  0.87579646  0.81133762    -0.43900
N3347       N  0.73096577  0.86417873  0.84532663    -0.41300
N3348       N  0.63674829  0.96175020  0.80829747    -0.42700
H3349       H  0.62142230  0.90623322  0.82382279     0.13400
H3350       H  0.74186129  0.91652967  0.82951378     0.09900
H3351       H  0.69723481  0.99966232  0.82013558     0.11000
H3352       H  0.78731961  0.94942645  0.80300575     0.16800
C3353       C  0.33690050  0.60083516  0.86611882    -0.01400
C3354       C  0.36387102  0.59364189  0.87152776     0.07200
C3355       C  0.39380016  0.58209416  0.86807838    -0.07400
C3356       C  0.39855435  0.58245778  0.85943750     0.04600
C3357       C  0.37436564  0.59857904  0.85411559    -0.14600
C3358       C  0.34232097  0.60345493  0.85754822    -0.07900
C3359       C  0.36184499  0.59970454  0.88067179     0.05600
C3360       C  0.36959197  0.57415646  0.88634708    -0.09000
C3361       C  0.36793332  0.57923142  0.89501497     0.00600
C3362       C  0.36080773  0.61184777  0.89836636     0.00400
C3363       C  0.34878832  0.63557178  0.89233225    -0.12600
C3364       C  0.35149960  0.63078952  0.88378661     0.00900
C3365       C  0.36637600  0.54861142  0.89968776     0.40200
C3366       C  0.34509587  0.65917435  0.87837098     0.36800
C3367       C  0.30358975  0.60615447  0.86924336     0.36600
C3368       C  0.42751127  0.56445456  0.85642292     0.37300
N3369       N  0.36328086  0.52252867  0.90269689    -0.43500
N3370       N  0.34011348  0.68198061  0.87406249    -0.43900
N3371       N  0.45073569  0.54972420  0.85412714    -0.41300
N3372       N  0.27694219  0.61031889  0.87178353    -0.42700
H3373       H  0.32183461  0.61172153  0.85361669     0.13400
H3374       H  0.41374103  0.57321785  0.87215080     0.09900
H3375       H  0.37535465  0.54942104  0.88395421     0.11000
H3376       H  0.33744748  0.65912066  0.89408282     0.16800
C3377       C  0.34433118  0.77821926  0.84034627    -0.01400
C3378       C  0.36949301  0.75440268  0.83871806     0.07200
C3379       C  0.40078592  0.76536191  0.83632649    -0.07400
C3380       C  0.40854075  0.79933621  0.83614200     0.04600
C3381       C  0.38363411  0.82430895  0.83804352    -0.14600
C3382       C  0.35140514  0.81234044  0.83996131    -0.07900
C3383       C  0.36544889  0.71791468  0.84015560     0.05600
C3384       C  0.37138699  0.69596496  0.83358215    -0.09000
C3385       C  0.37415033  0.66142835  0.83489665     0.00600
C3386       C  0.37109772  0.64747912  0.84307725     0.00400
C3387       C  0.36327885  0.67014178  0.84956061    -0.12600
C3388       C  0.36077233  0.70468800  0.84818248     0.00900
C3389       C  0.38032289  0.64130757  0.82761331     0.40200
C3390       C  0.35602639  0.72626496  0.85526660     0.36800
C3391       C  0.31126070  0.76821771  0.84263383     0.36600
C3392       C  0.44346911  0.80523299  0.83507857     0.37300
N3393       N  0.38499753  0.62580163  0.82166256    -0.43500
N3394       N  0.35208503  0.74367006  0.86091294    -0.43900
N3395       N  0.47199825  0.80748385  0.83442721    -0.41300
N3396       N  0.28489318  0.76005945  0.84455577    -0.42700
H3397       H  0.33162760  0.83008546  0.84145143     0.13400
H3398       H  0.42026304  0.74678930  0.83516951     0.09900
H3399       H  0.37502521  0.70608643  0.82738618     0.11000
H3400       H  0.36164820  0.66184309  0.85592789     0.16800
C3401       C  0.31325406  0.50388615  0.81708753    -0.01400
C3402       C  0.30080366  0.51648891  0.82465628     0.07200
C3403       C  0.26778186  0.50982169  0.82682814    -0.07400
C3404       C  0.24711511  0.49118161  0.82161181     0.04600
C3405       C  0.25946319  0.47850802  0.81398371    -0.14600
C3406       C  0.29276189  0.48492584  0.81188716    -0.07900
C3407       C  0.32053032  0.53922703  0.83003507     0.05600
C3408       C  0.30870392  0.57192580  0.83114335    -0.09000
C3409       C  0.32596850  0.59479886  0.83603507     0.00600
C3410       C  0.35764090  0.58577046  0.83965604     0.00400
C3411       C  0.36715824  0.55158880  0.83921140    -0.12600
C3412       C  0.34962607  0.52878384  0.83431753     0.00900
C3413       C  0.30830246  0.62585351  0.83763629     0.40200
C3414       C  0.36181632  0.49471131  0.83387740     0.36800
C3415       C  0.34643222  0.51146625  0.81432950     0.36600
C3416       C  0.21325183  0.48618724  0.82424584     0.37300
N3417       N  0.29356731  0.65041057  0.83890651    -0.43500
N3418       N  0.37178149  0.46745727  0.83350703    -0.43900
N3419       N  0.18612517  0.48240827  0.82640043    -0.41300
N3420       N  0.37301972  0.51760466  0.81212567    -0.42700
H3421       H  0.30272491  0.47571964  0.80606314     0.13400
H3422       H  0.25791950  0.51975871  0.83259443     0.09900
H3423       H  0.28528442  0.57953347  0.82823453     0.11000
H3424       H  0.38929458  0.54282190  0.84249694     0.16800
C3425       C  0.64234961  0.57447665  0.86236471    -0.01400
C3426       C  0.62116992  0.59269317  0.86765172     0.07200
C3427       C  0.60044228  0.61764437  0.86422207    -0.07400
C3428       C  0.60218502  0.62641537  0.85579516     0.04600
C3429       C  0.62613139  0.61049188  0.85043222    -0.14600
C3430       C  0.64399082  0.58270666  0.85388145    -0.07900
C3431       C  0.62137024  0.58787244  0.87685150     0.05600
C3432       C  0.65060533  0.59366598  0.88138042    -0.09000
C3433       C  0.65016246  0.59642804  0.89008509     0.00600
C3434       C  0.61930315  0.59560599  0.89445718     0.00400
C3435       C  0.59165279  0.58346290  0.88988377    -0.12600
C3436       C  0.59218221  0.58068311  0.88121907     0.00900
C3437       C  0.68136963  0.60354617  0.89414694     0.40200
C3438       C  0.56220400  0.57099553  0.87691300     0.36800
C3439       C  0.66221019  0.54671807  0.86551110     0.36600
C3440       C  0.58075762  0.65399516  0.85317833     0.37300
N3441       N  0.70672657  0.60911299  0.89725329    -0.43500
N3442       N  0.53820939  0.56332154  0.87344731    -0.43900
N3443       N  0.56349214  0.67636429  0.85135984    -0.41300
N3444       N  0.67804687  0.52451880  0.86809387    -0.42700
H3445       H  0.65946757  0.56679434  0.85007076     0.13400
H3446       H  0.58369634  0.63151029  0.86826609     0.09900
H3447       H  0.67359237  0.59795833  0.87806548     0.11000
H3448       H  0.56884450  0.57670933  0.89293513     0.16800
C3449       C  0.68298710  0.78027293  0.84154506    -0.01400
C3450       C  0.66987720  0.76119827  0.83499059     0.07200
C3451       C  0.65746179  0.77905597  0.82801123    -0.07400
C3452       C  0.65231658  0.81406128  0.82833336     0.04600
C3453       C  0.65424914  0.83058221  0.83614488    -0.14600
C3454       C  0.67329494  0.81364896  0.84235236    -0.07900
C3455       C  0.66339191  0.72445409  0.83628726     0.05600
C3456       C  0.65476775  0.71390618  0.84432562    -0.09000
C3457       C  0.64987010  0.68046118  0.84629867     0.00600
C3458       C  0.64420307  0.65686808  0.83983437     0.00400
C3459       C  0.65381693  0.66720552  0.83172692    -0.12600
C3460       C  0.66442911  0.69991727  0.82999522     0.00900
C3461       C  0.65585556  0.67225789  0.85494370     0.40200
C3462       C  0.67570801  0.70724432  0.82170176     0.36800
C3463       C  0.70539955  0.76594070  0.84772787     0.36600
C3464       C  0.64050438  0.83094606  0.82089170     0.37300
N3465       N  0.66159086  0.66690664  0.86189574    -0.43500
N3466       N  0.68464881  0.71284871  0.81501883    -0.43900
N3467       N  0.63100838  0.84404128  0.81487345    -0.41300
N3468       N  0.72325833  0.75453069  0.85269906    -0.42700
H3469       H  0.68073585  0.82602743  0.84799956     0.13400
H3470       H  0.64881231  0.76595234  0.82257402     0.09900
H3471       H  0.65315470  0.73178471  0.84934702     0.11000
H3472       H  0.65217523  0.64982613  0.82660424     0.16800
C3473       C  0.54315030  0.58258955  0.83863942    -0.01400
C3474       C  0.52269072  0.60966810  0.83622692     0.07200
C3475       C  0.53728704  0.63913210  0.83356018    -0.07400
C3476       C  0.57182573  0.64354754  0.83406024     0.04600
C3477       C  0.59298378  0.61759764  0.83753077    -0.14600
C3478       C  0.57759660  0.58649090  0.83913884    -0.07900
C3479       C  0.48647876  0.60989091  0.83791256     0.05600
C3480       C  0.47520786  0.62785321  0.84477398    -0.09000
C3481       C  0.44177487  0.62781478  0.84708707     0.00600
C3482       C  0.41805747  0.60848121  0.84256265     0.00400
C3483       C  0.43011318  0.59116232  0.83547056    -0.12600
C3484       C  0.46367917  0.59199807  0.83312793     0.00900
C3485       C  0.43354283  0.64691927  0.85442346     0.40200
C3486       C  0.47397902  0.57559730  0.82557259     0.36800
C3487       C  0.52909935  0.55142800  0.84132214     0.36600
C3488       C  0.58227734  0.67612402  0.83143587     0.37300
N3489       N  0.42792119  0.66206269  0.86038323    -0.43500
N3490       N  0.48223339  0.56279114  0.81946888    -0.43900
N3491       N  0.58831144  0.70278299  0.82914792    -0.41300
N3492       N  0.51766921  0.52651718  0.84345949    -0.42700
H3493       H  0.59256655  0.56561509  0.84147427     0.13400
H3494       H  0.52114571  0.65974260  0.83155577     0.09900
H3495       H  0.49295941  0.64176724  0.84844264     0.11000
H3496       H  0.41346078  0.57808004  0.83139544     0.16800
C3497       C  0.66425076  0.55735555  0.82452928    -0.01400
C3498       C  0.69837727  0.55472962  0.82652245     0.07200
C3499       C  0.71039620  0.57330407  0.83323066    -0.07400
C3500       C  0.68914803  0.59426912  0.83790749     0.04600
C3501       C  0.65420840  0.59656490  0.83611263    -0.14600
C3502       C  0.64300696  0.57816637  0.82913780    -0.07900
C3503       C  0.72194226  0.53490339  0.82119981     0.05600
C3504       C  0.72446604  0.54336866  0.81274714    -0.09000
C3505       C  0.74426416  0.52444670  0.80729792     0.00600
C3506       C  0.76246934  0.49609501  0.81026209     0.00400
C3507       C  0.76074486  0.48826185  0.81880315    -0.12600
C3508       C  0.74095368  0.50740432  0.82426012     0.00900
C3509       C  0.74505264  0.53490790  0.79869826     0.40200
C3510       C  0.74013213  0.49784386  0.83292342     0.36800
C3511       C  0.65019639  0.53907976  0.81766343     0.36600
C3512       C  0.70445354  0.61341882  0.84443639     0.37300
N3513       N  0.74562559  0.54346217  0.79181545    -0.43500
N3514       N  0.73984240  0.49009152  0.83986620    -0.43900
N3515       N  0.71738635  0.62842386  0.84962872    -0.41300
N3516       N  0.63885872  0.52463129  0.81214619    -0.42700
H3517       H  0.61764105  0.58031299  0.82692276     0.13400
H3518       H  0.73680999  0.57215825  0.83468049     0.09900
H3519       H  0.71049963  0.56484758  0.81036250     0.11000
H3520       H  0.77472430  0.46691203  0.82124275     0.16800
loop_ 
_geom_bond_atom_site_label_1 
_geom_bond_atom_site_label_2 
_geom_bond_distance 
_geom_bond_site_symmetry_2 
_ccdc_geom_bond_type 
C1         C3429   1.581       .  S
C1         C3458   1.576       .  S
C1         C3477   1.580       .  S
C1         C3501   1.583       .  S
C2         C3357   1.572       .  S
C2         C3386   1.571       .  S
C2         C3410   1.571       .  S
C2         C3482   1.570       .  S
C3         C3285   1.578       .  S
C3         C3309   1.582       .  S
C3         C3333   1.583       .  S
C3         C3453   1.570       .  S
C4         C3237   1.584       .  S
C4         C3261   1.579       .  S
C4         C3314   1.577       .  S
C4         C3381   1.579       .  S
C5         C3170   1.591       .  S
C5         C3194   1.574       .  S
C5         C3213   1.567       .  S
C5         C3434   1.585       .  S
C6         C3117   1.586       .  S
C6         C3141   1.560       .  S
C6         C3189   1.594       .  S
C6         C3362   1.610       .  S
C7         C3069   1.581       .  S
C7         C3093   1.582       .  S
C7         C3165   1.587       .  S
C7         C3290   1.573       .  S
C8         C3045   1.577       .  S
C8         C3074   1.585       .  S
C8         C3122   1.580       .  S
C8         C3242   1.588       .  S
In9          O11   2.255       .  S
In9          O12   2.252       .  S
In9          O20   2.284       .  S
In9          O14   2.251       .  S
In9          O16   2.254       .  S
In9          O17   2.266       .  S
In9          O18   2.247       .  S
In9          O21   2.255       .  S
C10          O16   1.261       .  A
C10          O18   1.261       .  A
C10        C2997   1.490       .  S
O11          C19   1.261       .  A
O12          C19   1.260       .  A
C13          O20   1.260       .  A
C13          O14   1.257       .  A
C13        C2949   1.494       .  S
C15          O17   1.261       .  A
C15          O21   1.260       .  A
C15        C2973   1.490       .  S
C19        C3021   1.489       .  S
In22         O24   2.253   1_545  S
In22         O25   2.243       .  S
In22         O33   2.252       .  S
In22         O27   2.243   1_545  S
In22         O29   2.250       .  S
In22         O30   2.245       .  S
In22         O31   2.251       .  S
In22         O34   2.255       .  S
C23          O29   1.259       .  A
C23          O31   1.260       .  A
C23        C2930   1.487       .  S
O24          C32   1.262       .  A
O25          C32   1.260   1_545  A
C26          O33   1.262   1_565  A
C26          O27   1.260       .  A
C26        C2877   1.489       .  S
C28          O30   1.260       .  A
C28          O34   1.259       .  A
C28        C2901   1.489       .  S
C32        C3026   1.490       .  S
In35         O37   2.267       .  S
In35         O38   2.244       .  S
In35         O46   2.269       .  S
In35         O40   2.264       .  S
In35         O42   2.263       .  S
In35         O43   2.247       .  S
In35         O44   2.262       .  S
In35         O47   2.251       .  S
C36          O42   1.260       .  A
C36          O44   1.258       .  A
C36        C2829   1.492       .  S
O37          C45   1.263       .  A
O38          C45   1.261       .  A
C39          O46   1.258       .  A
C39          O40   1.259       .  A
C39        C2810   1.490       .  S
C41          O43   1.262       .  A
C41          O47   1.262       .  A
C41        C2853   1.486       .  S
C45        C2978   1.492       .  S
In48         O50   2.251       .  S
In48         O51   2.257       .  S
In48         O59   2.256       .  S
In48         O53   2.264       .  S
In48         O55   2.233       .  S
In48         O56   2.263       .  S
In48         O57   2.255       .  S
In48         O60   2.265       .  S
C49          O55   1.262       .  A
C49          O57   1.263       .  A
C49        C2781   1.486       .  S
O50          C58   1.260       .  A
O51          C58   1.261       .  A
C52          O59   1.260       .  A
C52          O53   1.259       .  A
C52        C2757   1.494       .  S
C54          O56   1.258       .  A
C54          O60   1.258       .  A
C54        C2858   1.492       .  S
C58        C2906   1.492       .  S
In61         O63   2.258       .  S
In61         O64   2.261       .  S
In61         O72   2.249       .  S
In61         O66   2.256       .  S
In61         O68   2.264       .  S
In61         O69   2.254       .  S
In61         O70   2.259       .  S
In61         O73   2.252       .  S
C62          O68   1.259       .  A
C62          O70   1.257       .  A
C62        C3002   1.492       .  S
O63          C71   1.261       .  A
O64          C71   1.259       .  A
C65          O72   1.261       .  A
C65          O66   1.262       .  A
C65        C2685   1.489       .  S
C67          O69   1.260       .  A
C67          O73   1.262       .  A
C67        C2733   1.492       .  S
C71        C2709   1.494       .  S
In74         O76   2.261       .  S
In74         O77   2.259       .  S
In74         O85   2.251       .  S
In74         O79   2.263       .  S
In74         O81   2.263       .  S
In74         O82   2.264       .  S
In74         O83   2.244       .  S
In74         O86   2.260       .  S
C75          O81   1.262       .  A
C75          O83   1.260       .  A
C75        C2925   1.490       .  S
O76          C84   1.260       .  A
O77          C84   1.261       .  A
C78          O85   1.261       .  A
C78          O79   1.262       .  A
C78        C2637   1.494   1_545  S
C80          O82   1.260       .  A
C80          O86   1.259       .  A
C80        C2738   1.493       .  S
C84        C2666   1.493       .  S
In87         O89   2.264       .  S
In87         O90   2.232       .  S
In87         O98   2.263       .  S
In87         O92   2.275       .  S
In87         O94   2.232       .  S
In87         O95   2.262       .  S
In87         O96   2.277       .  S
In87         O99   2.245       .  S
C88          O94   1.259       .  A
C88          O96   1.264       .  A
C88        C2834   1.492       .  S
O89          C97   1.263       .  A
O90          C97   1.261       .  A
C91          O98   1.258       .  A
C91          O92   1.259       .  A
C91        C2594   1.495       .  S
C93          O95   1.262       .  A
C93          O99   1.260       .  A
C93        C2714   1.491       .  S
C97        C2613   1.488       .  S
In100       O102   2.267       .  S
In100       O103   2.239       .  S
In100       O111   2.265       .  S
In100       O105   2.252       .  S
In100       O107   2.242       .  S
In100       O108   2.251       .  S
In100       O109   2.271       .  S
In100       O112   2.261       .  S
C101        O107   1.259       .  A
C101        O109   1.259       .  A
C101       C2786   1.490       .  S
O102        C110   1.264       .  A
O103        C110   1.259       .  A
C104        O111   1.259       .  A
C104        O105   1.259       .  A
C104       C2565   1.493       .  S
C106        O108   1.260       .  A
C106        O112   1.262       .  A
C106       C2661   1.493       .  S
C110       C2618   1.489       .  S
In113       O115   2.239       .  S
In113       O116   2.262       .  S
In113       O124   2.260       .  S
In113       O118   2.254       .  S
In113       O120   2.265       .  S
In113       O121   2.243       .  S
In113       O122   2.226       .  S
In113       O125   2.256       .  S
C114        O120   1.262       .  A
C114        O122   1.258       .  A
C114       C2493   1.486       .  S
O115        C123   1.258       .  A
O116        C123   1.262       .  A
C117        O124   1.258       .  A
C117        O118   1.258       .  A
C117       C2469   1.491   1_545  S
C119        O121   1.261       .  A
C119        O125   1.264       .  A
C119       C2522   1.492       .  S
C123       C2541   1.488       .  S
In126       O128   2.255       .  S
In126       O129   2.263       .  S
In126       O137   2.258   1_545  S
In126       O131   2.261       .  S
In126       O133   2.269       .  S
In126       O134   2.253       .  S
In126       O135   2.257       .  S
In126       O138   2.261       .  S
C127        O133   1.260       .  A
C127        O135   1.260       .  A
C127       C2445   1.495       .  S
O128        C136   1.260       .  A
O129        C136   1.261       .  A
C130        O137   1.259   1_545  A
C130        O131   1.261       .  A
C130       C3266   1.493   1_545  S
C132        O134   1.260       .  A
C132        O138   1.261       .  A
C132       C2426   1.492       .  S
C136       C2546   1.494       .  S
In139       O141   2.250       .  S
In139       O142   2.269       .  S
In139       O150   2.263       .  S
In139       O144   2.260   1_545  S
In139       O146   2.260       .  S
In139       O147   2.253       .  S
In139       O148   2.250       .  S
In139       O151   2.257       .  S
C140        O146   1.262       .  A
C140        O148   1.260       .  A
C140       C2373   1.492       .  S
O141        C149   1.258       .  A
O142        C149   1.260       .  A
C143        O150   1.261   1_565  A
C143        O144   1.261       .  A
C143       C2349   1.495       .  S
C145        O147   1.260       .  A
C145        O151   1.261       .  A
C145       C2397   1.491       .  S
C149       C2517   1.492       .  S
In152       O154   2.264       .  S
In152       O155   2.255       .  S
In152       O163   2.262       .  S
In152       O157   2.263       .  S
In152       O159   2.259       .  S
In152       O160   2.251       .  S
In152       O161   2.240       .  S
In152       O164   2.259       .  S
C153        O159   1.262       .  A
C153        O161   1.259       .  A
C153       C2325   1.490       .  S
O154        C162   1.258       .  A
O155        C162   1.258       .  A
C156        O163   1.259       .  A
C156        O157   1.260       .  A
C156       C3338   1.491   1_545  S
C158        O160   1.261       .  A
C158        O164   1.263       .  A
C158       C2402   1.493       .  S
C162       C2421   1.490       .  S
In165       O167   2.248       .  S
In165       O168   2.276       .  S
In165       O176   2.271       .  S
In165       O170   2.266       .  S
In165       O172   2.254       .  S
In165       O173   2.268       .  S
In165       O174   2.244       .  S
In165       O177   2.258       .  S
C166        O172   1.264       .  A
C166        O174   1.261       .  A
C166       C2378   1.489       .  S
O167        C175   1.257       .  A
O168        C175   1.262       .  A
C169        O176   1.260       .  A
C169        O170   1.258       .  A
C169       C2253   1.498       .  S
C171        O173   1.261       .  A
C171        O177   1.260       .  A
C171       C2277   1.493       .  S
C175       C2301   1.490       .  S
In178       O180   2.243       .  S
In178       O181   2.261       .  S
In178       O189   2.275       .  S
In178       O183   2.260       .  S
In178       O185   2.268       .  S
In178       O186   2.233       .  S
In178       O187   2.248       .  S
In178       O190   2.273       .  S
C179        O185   1.262       .  A
C179        O187   1.258       .  A
C179       C2330   1.492       .  S
O180        C188   1.261       .  A
O181        C188   1.262       .  A
C182        O189   1.260       .  A
C182        O183   1.259       .  A
C182       C3506   1.498       .  S
C184        O186   1.257       .  A
C184        O190   1.263       .  A
C184       C2229   1.491       .  S
C188       C2306   1.489       .  S
In191       O193   2.243       .  S
In191       O194   2.258       .  S
In191       O202   2.273       .  S
In191       O196   2.257       .  S
In191       O198   2.252       .  S
In191       O199   2.258       .  S
In191       O200   2.249       .  S
In191       O203   2.245       .  S
C192        O198   1.260       .  A
C192        O200   1.258       .  A
C192       C2498   1.481       .  S
O193        C201   1.260       .  A
O194        C201   1.263       .  A
C195        O202   1.260       .  A
C195        O196   1.259       .  A
C195       C2186   1.495       .  S
C197        O199   1.261       .  A
C197        O203   1.261       .  A
C197       C2205   1.490       .  S
C201       C2282   1.490       .  S
In204       O206   2.238       .  S
In204       O207   2.273       .  S
In204       O215   2.272       .  S
In204       O209   2.266       .  S
In204       O211   2.272       .  S
In204       O212   2.250       .  S
In204       O213   2.235       .  S
In204       O216   2.268       .  S
C205        O211   1.263       .  A
C205        O213   1.258       .  A
C205       C2450   1.484       .  S
O206        C214   1.259       .  A
O207        C214   1.264       .  A
C208        O215   1.259       .  A
C208        O209   1.258       .  A
C208       C3405   1.496       .  S
C210        O212   1.260       .  A
C210        O216   1.263       .  A
C210       C2210   1.495       .  S
C214       C2234   1.494       .  S
C217       C2109   1.590       .  S
C217       C2138   1.576       .  S
C217       C2157   1.578       .  S
C217       C2258   1.580       .  S
C218       C2061   1.584       .  S
C218       C2090   1.578       .  S
C218       C2162   1.575       .  S
C218       C2181   1.577       .  S
C219       C2013   1.576       .  S
C219       C2037   1.576       .  S
C219       C2133   1.583       .  S
C219       C2354   1.578       .  S
C220       C1989   1.575       .  S
C220       C2042   1.578       .  S
C220       C2085   1.581       .  S
C220       C2474   1.572       .  S
C221       C1946   1.582       .  S
C221       C1965   1.578       .  S
C221       C2066   1.586       .  S
C221       C2762   1.563       .  S
C222       C1917   1.582       .  S
C222       C1970   1.569       .  S
C222       C1994   1.589       .  S
C222       C2882   1.573       .  S
C223       C1893   1.588       .  S
C223       C1941   1.577       .  S
C223       C2114   1.596       .  S
C223       C2570   1.570       .  S
C224       C1898   1.579       .  S
C224       C1922   1.585       .  S
C224       C2018   1.583       .  S
C224       C2642   1.569       .  S
In225       O227   2.266       .  S
In225       O228   2.254       .  S
In225       O236   2.272       .  S
In225       O230   2.263       .  S
In225       O232   2.242       .  S
In225       O233   2.243       .  S
In225       O234   2.241       .  S
In225       O237   2.261       .  S
C226        O232   1.263       .  A
C226        O234   1.261       .  A
C226       C1826   1.486       .  S
O227        C235   1.258       .  A
O228        C235   1.258       .  A
C229        O236   1.258       .  A
C229        O230   1.257       .  A
C229       C3098   1.493   1_545  S
C231        O233   1.259       .  A
C231        O237   1.261       .  A
C231       C1874   1.483       .  S
C235       C1845   1.490       .  S
In238       O240   2.269       .  S
In238       O241   2.248       .  S
In238       O249   2.265       .  S
In238       O243   2.262       .  S
In238       O245   2.247       .  S
In238       O246   2.267       .  S
In238       O247   2.251       .  S
In238       O250   2.250       .  S
C239        O245   1.261       .  A
C239        O247   1.260       .  A
C239       C1773   1.487       .  S
O240        C248   1.264       .  A
O241        C248   1.260       .  A
C242        O249   1.259       .  A
C242        O243   1.256       .  A
C242       C1749   1.491       .  S
C244        O246   1.259       .  A
C244        O250   1.258       .  A
C244       C1869   1.490       .  S
C248       C1802   1.490       .  S
In251       O253   2.246       .  S
In251       O254   2.264       .  S
In251       O262   2.254       .  S
In251       O256   2.272       .  S
In251       O258   2.236       .  S
In251       O259   2.248       .  S
In251       O260   2.251       .  S
In251       O263   2.278       .  S
C252        O258   1.260       .  A
C252        O260   1.261       .  A
C252       C1701   1.484       .  S
O253        C261   1.261       .  A
O254        C261   1.263       .  A
C255        O262   1.259       .  A
C255        O256   1.259       .  A
C255       C1677   1.495       .  S
C257        O259   1.259       .  A
C257        O263   1.264       .  A
C257       C1797   1.495       .  S
C261       C1730   1.493       .  S
In264       O266   2.249       .  S
In264       O267   2.267       .  S
In264       O275   2.259       .  S
In264       O269   2.261       .  S
In264       O271   2.248       .  S
In264       O272   2.267       .  S
In264       O273   2.247       .  S
In264       O276   2.244       .  S
C265        O271   1.261       .  A
C265        O273   1.261       .  A
C265       C1653   1.486       .  S
O266        C274   1.259       .  A
O267        C274   1.261       .  A
C268        O275   1.260       .  A
C268        O269   1.259       .  A
C268       C3218   1.492       .  S
C270        O272   1.262       .  A
C270        O276   1.259       .  A
C270       C1850   1.492       .  S
C274       C1725   1.492       .  S
In277       O279   2.248       .  S
In277       O280   2.253       .  S
In277       O288   2.277       .  S
In277       O282   2.247       .  S
In277       O284   2.242       .  S
In277       O285   2.257       .  S
In277       O286   2.245       .  S
In277       O289   2.269       .  S
C278        O284   1.261       .  A
C278        O286   1.260       .  A
C278       C1778   1.487       .  S
O279        C287   1.259       .  A
O280        C287   1.263       .  A
C281        O288   1.263       .  A
C281        O282   1.258       .  A
C281       C1581   1.497       .  S
C283        O285   1.259       .  A
C283        O289   1.260       .  A
C283       C1610   1.492       .  S
C287       C1629   1.490       .  S
In290       O292   2.242       .  S
In290       O293   2.262       .  S
In290       O301   2.270       .  S
In290       O295   2.250       .  S
In290       O297   2.262       .  S
In290       O298   2.256       .  S
In290       O299   2.229       .  S
In290       O302   2.261       .  S
C291        O297   1.264       .  A
C291        O299   1.260       .  A
C291       C1821   1.486       .  S
O292        C300   1.261       .  A
O293        C300   1.261       .  A
C294        O301   1.260       .  A
C294        O295   1.257       .  A
C294       C3050   1.489       .  S
C296        O298   1.258       .  A
C296        O302   1.259       .  A
C296       C1562   1.491       .  S
C300       C1634   1.489       .  S
In303       O305   2.269       .  S
In303       O306   2.243       .  S
In303       O314   2.264       .  S
In303       O308   2.260       .  S
In303       O310   2.262       .  S
In303       O311   2.252       .  S
In303       O312   2.223       .  S
In303       O315   2.257       .  S
C304        O310   1.263       .  A
C304        O312   1.259       .  A
C304       C1706   1.483       .  S
O305        C313   1.263       .  A
O306        C313   1.262       .  A
C307        O314   1.258       .  A
C307        O308   1.256       .  A
C307       C1509   1.488       .  S
C309        O311   1.259       .  A
C309        O315   1.260       .  A
C309       C1533   1.488       .  S
C313       C1605   1.495       .  S
In316       O318   2.244       .  S
In316       O319   2.260       .  S
In316       O327   2.255       .  S
In316       O321   2.257       .  S
In316       O323   2.259       .  S
In316       O324   2.249       .  S
In316       O325   2.235       .  S
In316       O328   2.233       .  S
C317        O323   1.262       .  A
C317        O325   1.260       .  A
C317       C1658   1.489       .  S
O318        C326   1.262       .  A
O319        C326   1.261       .  A
C320        O327   1.258       .  A
C320        O321   1.259       .  A
C320       C3146   1.489       .  S
C322        O324   1.263       .  A
C322        O328   1.258       .  A
C322       C1538   1.483       .  S
C326       C1557   1.490       .  S
C329       C1437   1.575       .  S
C329       C1461   1.573       .  S
C329       C1490   1.581       .  S
C329       C2690   1.566       .  S
C330       C1389   1.571       .  S
C330       C1413   1.579       .  S
C330       C1485   1.583       .  S
C330       C2589   1.584       .  S
C331       C1341   1.585       .  S
C331       C1365   1.576       .  S
C331       C1466   1.571       .  S
C331       C2954   1.566       .  S
C332       C1322   1.585       .  S
C332       C1370   1.568       .  S
C332       C1418   1.594       .  S
C332       C2805   1.576       .  S
C333       C1245   1.582       .  S
C333       C1274   1.578       .  S
C333       C1298   1.571       .  S
C333       C1346   1.589       .  S
C334       C1197   1.594       .  S
C334       C1226   1.579       .  S
C334       C1250   1.572       .  S
C334       C1442   1.583       .  S
C335       C1149   1.576       .  S
C335       C1173   1.576       .  S
C335       C1202   1.581       .  S
C335       C1394   1.574       .  S
C336       C1125   1.582       .  S
C336       C1154   1.578       .  S
C336       C1269   1.584       .  S
C336       C1317   1.586       .  S
In337       O339   2.253       .  S
In337       O340   2.261       .  S
In337       O348   2.274       .  S
In337       O342   2.239       .  S
In337       O344   2.251       .  S
In337       O345   2.245       .  S
In337       O346   2.258       .  S
In337       O349   2.251       .  S
C338        O344   1.260       .  A
C338        O346   1.262       .  A
C338       C1053   1.489       .  S
O339        C347   1.259       .  A
O340        C347   1.260       .  A
C341        O348   1.261       .  A
C341        O342   1.259       .  A
C341       C1029   1.492       .  S
C343        O345   1.261       .  A
C343        O349   1.260       .  A
C343       C1077   1.487       .  S
C347       C1101   1.491       .  S
In350       O352   2.259       .  S
In350       O353   2.251       .  S
In350       O361   2.265       .  S
In350       O355   2.275       .  S
In350       O357   2.278       .  S
In350       O358   2.269       .  S
In350       O359   2.256       .  S
In350       O362   2.257       .  S
C351        O357   1.261       .  A
C351        O359   1.259       .  A
C351        C986   1.497       .  S
O352        C360   1.263       .  A
O353        C360   1.261       .  A
C354        O361   1.259       .  A
C354        O355   1.259       .  A
C354       C1293   1.498       .  S
C356        O358   1.260       .  A
C356        O362   1.260       .  A
C356       C1005   1.495       .  S
C360       C1106   1.494       .  S
In363       O365   2.265       .  S
In363       O366   2.244       .  S
In363       O374   2.267       .  S
In363       O368   2.274       .  S
In363       O370   2.270       .  S
In363       O371   2.253       .  S
In363       O372   2.257       .  S
In363       O375   2.261       .  S
C364        O370   1.262       .  A
C364        O372   1.258       .  A
C364        C933   1.493       .  S
O365        C373   1.261       .  A
O366        C373   1.259       .  A
C367        O374   1.261       .  A
C367        O368   1.262       .  A
C367       C1221   1.502       .  S
C369        O371   1.261       .  A
C369        O375   1.261       .  A
C369        C957   1.492       .  S
C373       C1010   1.490       .  S
In376       O378   2.258       .  S
In376       O379   2.230       .  S
In376       O387   2.257       .  S
In376       O381   2.242       .  S
In376       O383   2.246       .  S
In376       O384   2.249       .  S
In376       O385   2.245       .  S
In376       O388   2.263       .  S
C377        O383   1.262       .  A
C377        O385   1.260       .  A
C377        C909   1.485       .  S
O378        C386   1.262       .  A
O379        C386   1.260       .  A
C380        O387   1.261       .  A
C380        O381   1.258       .  A
C380        C885   1.486       .  S
C382        O384   1.256       .  A
C382        O388   1.261       .  A
C382        C962   1.490       .  S
C386       C1082   1.484       .  S
In389       O391   2.255       .  S
In389       O392   2.269       .  S
In389       O400   2.288       .  S
In389       O394   2.261       .  S
In389       O396   2.260       .  S
In389       O397   2.266       .  S
In389       O398   2.258       .  S
In389       O401   2.269       .  S
C390        O396   1.262       .  A
C390        O398   1.261       .  A
C390        C981   1.496       .  S
O391        C399   1.257       .  A
O392        C399   1.261       .  A
C393        O400   1.262       .  A
C393        O394   1.258       .  A
C393       C1130   1.502       .  S
C395        O397   1.259       .  A
C395        O401   1.261       .  A
C395        C861   1.498       .  S
C399        C837   1.494       .  S
In402       O404   2.263       .  S
In402       O405   2.260       .  S
In402       O413   2.250       .  S
In402       O407   2.283       .  S
In402       O409   2.272       .  S
In402       O410   2.274       .  S
In402       O411   2.243       .  S
In402       O414   2.261       .  S
C403        O409   1.262       .  A
C403        O411   1.260       .  A
C403       C1058   1.494       .  S
O404        C412   1.261       .  A
O405        C412   1.261       .  A
C406        O413   1.258       .  A
C406        O407   1.261       .  A
C406        C789   1.499       .  S
C408        O410   1.261       .  A
C408        O414   1.260       .  A
C408        C866   1.497       .  S
C412        C813   1.493       .  S
In415       O417   2.258       .  S
In415       O418   2.244       .  S
In415       O426   2.260       .  S
In415       O420   2.271       .  S
In415       O422   2.264       .  S
In415       O423   2.246       .  S
In415       O424   2.255       .  S
In415       O427   2.254       .  S
C416        O422   1.260       .  A
C416        O424   1.259       .  A
C416        C938   1.493       .  S
O417        C425   1.263       .  A
O418        C425   1.260       .  A
C419        O426   1.259       .  A
C419        O420   1.261       .  A
C419       C1178   1.497       .  S
C421        O423   1.260       .  A
C421        O427   1.262       .  A
C421        C842   1.485       .  S
C425        C765   1.490       .  S
In428       O430   2.235       .  S
In428       O431   2.259       .  S
In428       O439   2.243       .  S
In428       O433   2.268       .  S
In428       O435   2.260       .  S
In428       O436   2.260       .  S
In428       O437   2.224       .  S
In428       O440   2.249       .  S
C429        O435   1.262       .  A
C429        O437   1.259       .  A
C429        C914   1.484       .  S
O430        C438   1.260       .  A
O431        C438   1.264       .  A
C432        O439   1.257       .  A
C432        O433   1.262       .  A
C432        C746   1.485       .  S
C434        O436   1.262       .  A
C434        O440   1.259       .  A
C434        C818   1.494       .  S
C438        C770   1.488       .  S
C441        C669   1.586       .  S
C441        C693   1.578       .  S
C441        C717   1.579       .  S
C441        C794   1.572       .  S
C442        C621   1.584       .  S
C442        C645   1.573       .  S
C442        C698   1.576       .  S
C442       C1034   1.575       .  S
C443        C578   1.587       .  S
C443        C602   1.578       .  S
C443        C650   1.579       .  S
C443        C890   1.577       .  S
C444        C554   1.574       .  S
C444        C597   1.574       .  S
C444        C722   1.576       .  S
C444        C741   1.571       .  S
C445        C501   1.586       .  S
C445        C530   1.594       .  S
C445        C573   1.576       .  S
C445       C1754   1.577       .  S
C446        C477   1.572       .  S
C446        C525   1.606       .  S
C446        C549   1.606       .  S
C446       C1682   1.579       .  S
C447        C458   1.581       .  S
C447        C506   1.579       .  S
C447        C626   1.579       .  S
C447       C1586   1.579       .  S
C448        C453   1.591       .  S
C448        C482   1.584       .  S
C448        C674   1.590       .  S
C448       C1514   1.583       .  S
C449        C450   1.399       .  A
C449        C454   1.393       .  A
C449        C463   1.447       .  S
C450        C455   1.487       .  S
C450        C451   1.395       .  A
C451        C452   1.409       .  A
C451        H470   1.085       .  S
C452        C453   1.437       .  A
C452        C464   1.441       .  S
C453        C454   1.420       .  A
C454        H469   1.065       .  S
C455        C456   1.394       .  A
C455        C460   1.404       .  A
C456        C457   1.394       .  A
C456        H471   1.086       .  S
C457        C458   1.436       .  A
C457        C461   1.445       .  S
C458        C459   1.420       .  A
C459        C460   1.407       .  A
C459        H472   1.079       .  S
C460        C462   1.442       .  S
C461        N465   1.157       .  T
C462        N466   1.157       .  T
C463        N468   1.157       .  T
C464        N467   1.157       .  T
C473        C474   1.414       .  A
C473        C478   1.401       .  A
C473        C487   1.445       .  S
C474        C479   1.502       .  S
C474        C475   1.401       .  A
C475        C476   1.400       .  A
C475        H494   1.084       .  S
C476        C477   1.426       .  A
C476        C488   1.442       .  S
C477        C478   1.418       .  A
C478        H493   1.081       .  S
C479        C480   1.404       .  A
C479        C484   1.414       .  A
C480        C481   1.407       .  A
C480        H495   1.084       .  S
C481        C482   1.428       .  A
C481        C485   1.441       .  S
C482        C483   1.408       .  A
C483        C484   1.395       .  A
C483        H496   1.071       .  S
C484        C486   1.446       .  S
C485        N489   1.158       .  T
C486        N490   1.157       .  T
C487        N492   1.157       .  T
C488        N491   1.157       .  T
C497        C498   1.405       .  A
C497        C502   1.414       .  A
C497        C511   1.442       .  S
C498        C503   1.486       .  S
C498        C499   1.389       .  A
C499        C500   1.393       .  A
C499        H518   1.082       .  S
C500        C501   1.436       .  A
C500        C512   1.440       .  S
C501        C502   1.419       .  A
C502        H517   1.084       .  S
C503        C504   1.402       .  A
C503        C508   1.402       .  A
C504        C505   1.412       .  A
C504        H519   1.085       .  S
C505        C506   1.432       .  A
C505        C509   1.444       .  S
C506        C507   1.421       .  A
C507        C508   1.393       .  A
C507        H520   1.078       .  S
C508        C510   1.444       .  S
C509        N513   1.157       .  T
C510        N514   1.157       .  T
C511        N516   1.157       .  T
C512        N515   1.156       .  T
C521        C522   1.402       .  A
C521        C526   1.399       .  A
C521        C535   1.445       .  S
C522        C527   1.496       .  S
C522        C523   1.399       .  A
C523        C524   1.412       .  A
C523        H542   1.085       .  S
C524        C525   1.441       .  A
C524        C536   1.441       .  S
C525        C526   1.425       .  A
C526        H541   1.058       .  S
C527        C528   1.396       .  A
C527        C532   1.404       .  A
C528        C529   1.405       .  A
C528        H543   1.086       .  S
C529        C530   1.434       .  A
C529        C533   1.434       .  S
C530        C531   1.427       .  A
C531        C532   1.404       .  A
C531        H544   1.084       .  S
C532        C534   1.443       .  S
C533        N537   1.158       .  T
C534        N538   1.157       .  T
C535        N540   1.157       .  T
C536        N539   1.158       .  T
C545        C546   1.412       .  A
C545        C550   1.399       .  A
C545        C559   1.450       .  S
C546        C551   1.515       .  S
C546        C547   1.405       .  A
C547        C548   1.412       .  A
C547        H566   1.079       .  S
C548        C549   1.438       .  A
C548        C560   1.442       .  S
C549        C550   1.425       .  A
C550        H565   1.037       .  S
C551        C552   1.402       .  A
C551        C556   1.420       .  A
C552        C553   1.395       .  A
C552        H567   1.084       .  S
C553        C554   1.431       .  A
C553        C557   1.446       .  S
C554        C555   1.417       .  A
C555        C556   1.408       .  A
C555        H568   1.077       .  S
C556        C558   1.442       .  S
C557        N561   1.158       .  T
C558        N562   1.157       .  T
C559        N564   1.158       .  T
C560        N563   1.158       .  T
C569        C570   1.410       .  A
C569        C574   1.409       .  A
C569        C583   1.443       .  S
C570        C575   1.497       .  S
C570        C571   1.399       .  A
C571        C572   1.397       .  A
C571        H590   1.085       .  S
C572        C573   1.434       .  A
C572        C584   1.447       .  S
C573        C574   1.419       .  A
C574        H589   1.079       .  S
C575        C576   1.405       .  A
C575        C580   1.407       .  A
C576        C577   1.413       .  A
C576        H591   1.084       .  S
C577        C578   1.433       .  A
C577        C581   1.445       .  S
C578        C579   1.418       .  A
C579        C580   1.389       .  A
C579        H592   1.072       .  S
C580        C582   1.446       .  S
C581        N585   1.157       .  T
C582        N586   1.157       .  T
C583        N588   1.157       .  T
C584        N587   1.157       .  T
C593        C594   1.408       .  A
C593        C598   1.393       .  A
C593        C607   1.443       .  S
C594        C599   1.492       .  S
C594        C595   1.402       .  A
C595        C596   1.409       .  A
C595        H614   1.084       .  S
C596        C597   1.432       .  A
C596        C608   1.445       .  S
C597        C598   1.414       .  A
C598        H613   1.073       .  S
C599        C600   1.394       .  A
C599        C604   1.407       .  A
C600        C601   1.396       .  A
C600        H615   1.086       .  S
C601        C602   1.435       .  A
C601        C605   1.441       .  S
C602        C603   1.423       .  A
C603        C604   1.411       .  A
C603        H616   1.079       .  S
C604        C606   1.443       .  S
C605        N609   1.157       .  T
C606        N610   1.157       .  T
C607        N612   1.156       .  T
C608        N611   1.157       .  T
C617        C618   1.404       .  A
C617        C622   1.397       .  A
C617        C631   1.447       .  S
C618        C623   1.485       .  S
C618        C619   1.398       .  A
C619        C620   1.403       .  A
C619        H638   1.085       .  S
C620        C621   1.432       .  A
C620        C632   1.443       .  S
C621        C622   1.423       .  A
C622        H637   1.079       .  S
C623        C624   1.392       .  A
C623        C628   1.402       .  A
C624        C625   1.399       .  A
C624        H639   1.087       .  S
C625        C626   1.436       .  A
C625        C629   1.436       .  S
C626        C627   1.426       .  A
C627        C628   1.400       .  A
C627        H640   1.085       .  S
C628        C630   1.444       .  S
C629        N633   1.156       .  T
C630        N634   1.157       .  T
C631        N636   1.157       .  T
C632        N635   1.157   1_545  T
C641        C642   1.405       .  A
C641        C646   1.394       .  A
C641        C655   1.444       .  S
C642        C647   1.493       .  S
C642        C643   1.402       .  A
C643        C644   1.413       .  A
C643        H662   1.085       .  S
C644        C645   1.432       .  A
C644        C656   1.440       .  S
C645        C646   1.421       .  A
C646        H661   1.082       .  S
C647        C648   1.396       .  A
C647        C652   1.409       .  A
C648        C649   1.393       .  A
C648        H663   1.082       .  S
C649        C650   1.425       .  A
C649        C653   1.437       .  S
C650        C651   1.423       .  A
C651        C652   1.413       .  A
C651        H664   1.084       .  S
C652        C654   1.442       .  S
C653        N657   1.155       .  T
C654        N658   1.157   1_545  T
C655        N660   1.157       .  T
C656        N659   1.158       .  T
C665        C666   1.404       .  A
C665        C670   1.397       .  A
C665        C679   1.446       .  S
C666        C671   1.493       .  S
C666        C667   1.400       .  A
C667        C668   1.407       .  A
C667        H686   1.085       .  S
C668        C669   1.432       .  A
C668        C680   1.444       .  S
C669        C670   1.425       .  A
C670        H685   1.077       .  S
C671        C672   1.397       .  A
C671        C676   1.402       .  A
C672        C673   1.402       .  A
C672        H687   1.085       .  S
C673        C674   1.434       .  A
C673        C677   1.443       .  S
C674        C675   1.419       .  A
C675        C676   1.403       .  A
C675        H688   1.070       .  S
C676        C678   1.444       .  S
C677        N681   1.158       .  T
C678        N682   1.157       .  T
C679        N684   1.157       .  T
C680        N683   1.157       .  T
C689        C690   1.405       .  A
C689        C694   1.392       .  A
C689        C703   1.447       .  S
C690        C695   1.490       .  S
C690        C691   1.400       .  A
C691        C692   1.410       .  A
C691        H710   1.085       .  S
C692        C693   1.436       .  A
C692        C704   1.442       .  S
C693        C694   1.420       .  A
C694        H709   1.083       .  S
C695        C696   1.395       .  A
C695        C700   1.406       .  A
C696        C697   1.396       .  A
C696        H711   1.086       .  S
C697        C698   1.434       .  A
C697        C701   1.441       .  S
C698        C699   1.421       .  A
C699        C700   1.405       .  A
C699        H712   1.084       .  S
C700        C702   1.443       .  S
C701        N705   1.157       .  T
C702        N706   1.157       .  T
C703        N708   1.157       .  T
C704        N707   1.158       .  T
C713        C714   1.407       .  A
C713        C718   1.399       .  A
C713        C727   1.444       .  S
C714        C719   1.490       .  S
C714        C715   1.399       .  A
C715        C716   1.403       .  A
C715        H734   1.085       .  S
C716        C717   1.431       .  A
C716        C728   1.444       .  S
C717        C718   1.419       .  A
C718        H733   1.080       .  S
C719        C720   1.397       .  A
C719        C724   1.407       .  A
C720        C721   1.398       .  A
C720        H735   1.086       .  S
C721        C722   1.432       .  A
C721        C725   1.444       .  S
C722        C723   1.418       .  A
C723        C724   1.405       .  A
C723        H736   1.084       .  S
C724        C726   1.443       .  S
C725        N729   1.158       .  T
C726        N730   1.157       .  T
C727        N732   1.157       .  T
C728        N731   1.157       .  T
C737        C738   1.403       .  A
C737        C742   1.402       .  A
C737        C751   1.444       .  S
C738        C743   1.483       .  S
C738        C739   1.394       .  A
C739        C740   1.398       .  A
C739        H758   1.086       .  S
C740        C741   1.435       .  A
C740        C752   1.443       .  S
C741        C742   1.421       .  A
C742        H757   1.083       .  S
C743        C744   1.401       .  A
C743        C748   1.409       .  A
C744        C745   1.400       .  A
C744        H759   1.085       .  S
C745        C746   1.416       .  A
C745        C749   1.444       .  S
C746        C747   1.406       .  A
C747        C748   1.403       .  A
C747        H760   1.084       .  S
C748        C750   1.444       .  S
C749        N753   1.157       .  T
C750        N754   1.157       .  T
C751        N756   1.157       .  T
C752        N755   1.158       .  T
C761        C762   1.410       .  A
C761        C766   1.402       .  A
C761        C775   1.444       .  S
C762        C767   1.490       .  S
C762        C763   1.403       .  A
C763        C764   1.402       .  A
C763        H782   1.085       .  S
C764        C765   1.418       .  A
C764        C776   1.444       .  S
C765        C766   1.407       .  A
C766        H781   1.084       .  S
C767        C768   1.405       .  A
C767        C772   1.411       .  A
C768        C769   1.404       .  A
C768        H783   1.085       .  S
C769        C770   1.416       .  A
C769        C773   1.443       .  S
C770        C771   1.406       .  A
C771        C772   1.399       .  A
C771        H784   1.085       .  S
C772        C774   1.445       .  S
C773        N777   1.157       .  T
C774        N778   1.157       .  T
C775        N780   1.157       .  T
C776        N779   1.157       .  T
C785        C786   1.413       .  A
C785        C790   1.409       .  A
C785        C799   1.444       .  S
C786        C791   1.495       .  S
C786        C787   1.401       .  A
C787        C788   1.402       .  A
C787        H806   1.085       .  S
C788        C789   1.419       .  A
C788        C800   1.443       .  S
C789        C790   1.410       .  A
C790        H805   1.084       .  S
C791        C792   1.399       .  A
C791        C796   1.406       .  A
C792        C793   1.404       .  A
C792        H807   1.085       .  S
C793        C794   1.433       .  A
C793        C797   1.445       .  S
C794        C795   1.420       .  A
C795        C796   1.405       .  A
C795        H808   1.078       .  S
C796        C798   1.444       .  S
C797        N801   1.157       .  T
C798        N802   1.157       .  T
C799        N804   1.157       .  T
C800        N803   1.157       .  T
C809        C810   1.409       .  A
C809        C814   1.404       .  A
C809        C823   1.444       .  S
C810        C815   1.488       .  S
C810        C811   1.401       .  A
C811        C812   1.405       .  A
C811        H830   1.085       .  S
C812        C813   1.418       .  A
C812        C824   1.443       .  S
C813        C814   1.408       .  A
C814        H829   1.084       .  S
C815        C816   1.401   1_455  A
C815        C820   1.408   1_455  A
C816        C817   1.405       .  A
C816        H831   1.085   1_655  S
C817        C818   1.420       .  A
C817        C821   1.444       .  S
C818        C819   1.408       .  A
C819        C820   1.403       .  A
C819        H832   1.084       .  S
C820        C822   1.443       .  S
C821        N825   1.158       .  T
C822        N826   1.157   1_655  T
C823        N828   1.157       .  T
C824        N827   1.157       .  T
C833        C834   1.410       .  A
C833        C838   1.404       .  A
C833        C847   1.444       .  S
C834        C839   1.491       .  S
C834        C835   1.402       .  A
C835        C836   1.402       .  A
C835        H854   1.085       .  S
C836        C837   1.419       .  A
C836        C848   1.444       .  S
C837        C838   1.408       .  A
C838        H853   1.084       .  S
C839        C840   1.403       .  A
C839        C844   1.411       .  A
C840        C841   1.401       .  A
C840        H855   1.085       .  S
C841        C842   1.415       .  A
C841        C845   1.444       .  S
C842        C843   1.405       .  A
C843        C844   1.403       .  A
C843        H856   1.085       .  S
C844        C846   1.443       .  S
C845        N849   1.157       .  T
C846        N850   1.157       .  T
C847        N852   1.157       .  T
C848        N851   1.157       .  T
C857        C858   1.410       .  A
C857        C862   1.406       .  A
C857        C871   1.444       .  S
C858        C863   1.494       .  S
C858        C859   1.402       .  A
C859        C860   1.405       .  A
C859        H878   1.085       .  S
C860        C861   1.418       .  A
C860        C872   1.443       .  S
C861        C862   1.410       .  A
C862        H877   1.084       .  S
C863        C864   1.404       .  A
C863        C868   1.410       .  A
C864        C865   1.408       .  A
C864        H879   1.085       .  S
C865        C866   1.418       .  A
C865        C869   1.443       .  S
C866        C867   1.408       .  A
C867        C868   1.403       .  A
C867        H880   1.084       .  S
C868        C870   1.444       .  S
C869        N873   1.157       .  T
C870        N874   1.157       .  T
C871        N876   1.157       .  T
C872        N875   1.157       .  T
C881        C882   1.408   1_565  A
C881        C886   1.401       .  A
C881        C895   1.444       .  S
C882        C887   1.484       .  S
C882        C883   1.403       .  A
C883        C884   1.402       .  A
C883        H902   1.085       .  S
C884        C885   1.415   1_545  A
C884        C896   1.444       .  S
C885        C886   1.407       .  A
C886        H901   1.085       .  S
C887        C888   1.389       .  A
C887        C892   1.404       .  A
C888        C889   1.396       .  A
C888        H903   1.087       .  S
C889        C890   1.434       .  A
C889        C893   1.438       .  S
C890        C891   1.424       .  A
C891        C892   1.407       .  A
C891        H904   1.079       .  S
C892        C894   1.444       .  S
C893        N897   1.157       .  T
C894        N898   1.157   1_545  T
C895        N900   1.157       .  T
C896        N899   1.157       .  T
C905        C906   1.408       .  A
C905        C910   1.399       .  A
C905        C919   1.444       .  S
C906        C911   1.482       .  S
C906        C907   1.401       .  A
C907        C908   1.402       .  A
C907        H926   1.085       .  S
C908        C909   1.417       .  A
C908        C920   1.444       .  S
C909        C910   1.406       .  A
C910        H925   1.084       .  S
C911        C912   1.403       .  A
C911        C916   1.408       .  A
C912        C913   1.404       .  A
C912        H927   1.085       .  S
C913        C914   1.416       .  A
C913        C917   1.444       .  S
C914        C915   1.406       .  A
C915        C916   1.396       .  A
C915        H928   1.085       .  S
C916        C918   1.445       .  S
C917        N921   1.157       .  T
C918        N922   1.157       .  T
C919        N924   1.157       .  T
C920        N923   1.157       .  T
C929        C930   1.410       .  A
C929        C934   1.403       .  A
C929        C943   1.445       .  S
C930        C935   1.489       .  S
C930        C931   1.402       .  A
C931        C932   1.404       .  A
C931        H950   1.085       .  S
C932        C933   1.416       .  A
C932        C944   1.443       .  S
C933        C934   1.409       .  A
C934        H949   1.084       .  S
C935        C936   1.401       .  A
C935        C940   1.410       .  A
C936        C937   1.402       .  A
C936        H951   1.085       .  S
C937        C938   1.418       .  A
C937        C941   1.444       .  S
C938        C939   1.409       .  A
C939        C940   1.404       .  A
C939        H952   1.084       .  S
C940        C942   1.444       .  S
C941        N945   1.157       .  T
C942        N946   1.157       .  T
C943        N948   1.157       .  T
C944        N947   1.157       .  T
C953        C954   1.410       .  A
C953        C958   1.403       .  A
C953        C967   1.444       .  S
C954        C959   1.490       .  S
C954        C955   1.403       .  A
C955        C956   1.403       .  A
C955        H974   1.085       .  S
C956        C957   1.417       .  A
C956        C968   1.444       .  S
C957        C958   1.408       .  A
C958        H973   1.084       .  S
C959        C960   1.402       .  A
C959        C964   1.411       .  A
C960        C961   1.403       .  A
C960        H975   1.085       .  S
C961        C962   1.419       .  A
C961        C965   1.445       .  S
C962        C963   1.406       .  A
C963        C964   1.402       .  A
C963        H976   1.084       .  S
C964        C966   1.443       .  S
C965        N969   1.158       .  T
C966        N970   1.157       .  T
C967        N972   1.157   1_565  T
C968        N971   1.157       .  T
C977        C978   1.411       .  A
C977        C982   1.404       .  A
C977        C991   1.443       .  S
C978        C983   1.497       .  S
C978        C979   1.404       .  A
C979        C980   1.405       .  A
C979        H998   1.085       .  S
C980        C981   1.418       .  A
C980        C992   1.444       .  S
C981        C982   1.408       .  A
C982        H997   1.084       .  S
C983        C984   1.405       .  A
C983        C988   1.411       .  A
C984        C985   1.408       .  A
C984        H999   1.085       .  S
C985        C986   1.418       .  A
C985        C989   1.443       .  S
C986        C987   1.408       .  A
C987        C988   1.402       .  A
C987       H1000   1.084       .  S
C988        C990   1.444       .  S
C989        N993   1.157       .  T
C990        N994   1.157       .  T
C991        N996   1.157       .  T
C992        N995   1.157       .  T
C1001      C1002   1.408       .  A
C1001      C1006   1.406       .  A
C1001      C1015   1.444       .  S
C1002      C1007   1.487       .  S
C1002      C1003   1.400       .  A
C1003      C1004   1.402       .  A
C1003      H1022   1.085       .  S
C1004      C1005   1.418       .  A
C1004      C1016   1.444       .  S
C1005      C1006   1.410       .  A
C1006      H1021   1.084       .  S
C1007      C1008   1.403       .  A
C1007      C1012   1.408       .  A
C1008      C1009   1.407       .  A
C1008      H1023   1.084       .  S
C1009      C1010   1.417       .  A
C1009      C1013   1.444       .  S
C1010      C1011   1.407       .  A
C1011      C1012   1.399       .  A
C1011      H1024   1.084       .  S
C1012      C1014   1.444       .  S
C1013      N1017   1.157       .  T
C1014      N1018   1.157       .  T
C1015      N1020   1.157   1_565  T
C1016      N1019   1.157       .  T
C1025      C1026   1.409       .  A
C1025      C1030   1.406       .  A
C1025      C1039   1.444       .  S
C1026      C1031   1.483       .  S
C1026      C1027   1.398   1_545  A
C1027      C1028   1.399       .  A
C1027      H1046   1.085       .  S
C1028      C1029   1.418       .  A
C1028      C1040   1.444       .  S
C1029      C1030   1.410   1_565  A
C1030      H1045   1.084       .  S
C1031      C1032   1.393       .  A
C1031      C1036   1.400       .  A
C1032      C1033   1.403       .  A
C1032      H1047   1.086       .  S
C1033      C1034   1.434       .  A
C1033      C1037   1.440       .  S
C1034      C1035   1.424       .  A
C1035      C1036   1.401       .  A
C1035      H1048   1.079       .  S
C1036      C1038   1.444       .  S
C1037      N1041   1.157       .  T
C1038      N1042   1.157       .  T
C1039      N1044   1.157       .  T
C1040      N1043   1.157       .  T
C1049      C1050   1.411       .  A
C1049      C1054   1.402       .  A
C1049      C1063   1.444       .  S
C1050      C1055   1.494       .  S
C1050      C1051   1.405       .  A
C1051      C1052   1.404       .  A
C1051      H1070   1.085       .  S
C1052      C1053   1.415       .  A
C1052      C1064   1.444       .  S
C1053      C1054   1.407       .  A
C1054      H1069   1.085       .  S
C1055      C1056   1.405       .  A
C1055      C1060   1.411       .  A
C1056      C1057   1.407       .  A
C1056      H1071   1.085       .  S
C1057      C1058   1.418       .  A
C1057      C1061   1.444       .  S
C1058      C1059   1.407       .  A
C1059      C1060   1.400       .  A
C1059      H1072   1.084       .  S
C1060      C1062   1.444       .  S
C1061      N1065   1.157       .  T
C1062      N1066   1.157       .  T
C1063      N1068   1.157       .  T
C1064      N1067   1.157       .  T
C1073      C1074   1.409       .  A
C1073      C1078   1.400       .  A
C1073      C1087   1.444       .  S
C1074      C1079   1.484   1_455  S
C1074      C1075   1.401       .  A
C1075      C1076   1.402       .  A
C1075      H1094   1.085       .  S
C1076      C1077   1.418       .  A
C1076      C1088   1.444       .  S
C1077      C1078   1.406       .  A
C1078      H1093   1.084       .  S
C1079      C1080   1.403       .  A
C1079      C1084   1.409       .  A
C1080      C1081   1.404       .  A
C1080      H1095   1.085       .  S
C1081      C1082   1.416       .  A
C1081      C1085   1.444       .  S
C1082      C1083   1.405       .  A
C1083      C1084   1.397       .  A
C1083      H1096   1.085       .  S
C1084      C1086   1.444   1_655  S
C1085      N1089   1.157       .  T
C1086      N1090   1.157       .  T
C1087      N1092   1.157       .  T
C1088      N1091   1.157       .  T
C1097      C1098   1.410       .  A
C1097      C1102   1.401       .  A
C1097      C1111   1.444       .  S
C1098      C1103   1.490       .  S
C1098      C1099   1.403       .  A
C1099      C1100   1.406       .  A
C1099      H1118   1.085       .  S
C1100      C1101   1.417       .  A
C1100      C1112   1.444       .  S
C1101      C1102   1.407       .  A
C1102      H1117   1.084       .  S
C1103      C1104   1.402       .  A
C1103      C1108   1.409       .  A
C1104      C1105   1.405       .  A
C1104      H1119   1.085       .  S
C1105      C1106   1.419       .  A
C1105      C1109   1.444       .  S
C1106      C1107   1.408       .  A
C1107      C1108   1.403       .  A
C1107      H1120   1.084       .  S
C1108      C1110   1.443       .  S
C1109      N1113   1.157       .  T
C1110      N1114   1.157       .  T
C1111      N1116   1.157       .  T
C1112      N1115   1.157   1_565  T
C1121      C1122   1.408       .  A
C1121      C1126   1.400       .  A
C1121      C1135   1.445       .  S
C1122      C1127   1.504       .  S
C1122      C1123   1.405       .  A
C1123      C1124   1.410       .  A
C1123      H1142   1.085       .  S
C1124      C1125   1.428       .  A
C1124      C1136   1.443       .  S
C1125      C1126   1.422       .  A
C1126      H1141   1.080       .  S
C1127      C1128   1.406       .  A
C1127      C1132   1.413       .  A
C1128      C1129   1.405       .  A
C1128      H1143   1.085       .  S
C1129      C1130   1.419       .  A
C1129      C1133   1.444       .  S
C1130      C1131   1.409       .  A
C1131      C1132   1.409       .  A
C1131      H1144   1.084       .  S
C1132      C1134   1.444       .  S
C1133      N1137   1.157       .  T
C1134      N1138   1.157       .  T
C1135      N1140   1.157       .  T
C1136      N1139   1.157       .  T
C1145      C1146   1.408   1_655  A
C1145      C1150   1.406       .  A
C1145      C1159   1.443       .  S
C1146      C1151   1.497       .  S
C1146      C1147   1.403   1_455  A
C1147      C1148   1.402       .  A
C1147      H1166   1.085   1_655  S
C1148      C1149   1.426       .  A
C1148      C1160   1.444       .  S
C1149      C1150   1.419       .  A
C1150      H1165   1.081       .  S
C1151      C1152   1.405       .  A
C1151      C1156   1.401       .  A
C1152      C1153   1.412       .  A
C1152      H1167   1.085       .  S
C1153      C1154   1.432       .  A
C1153      C1157   1.441       .  S
C1154      C1155   1.424       .  A
C1155      C1156   1.395       .  A
C1155      H1168   1.084       .  S
C1156      C1158   1.445       .  S
C1157      N1161   1.158       .  T
C1158      N1162   1.157       .  T
C1159      N1164   1.157   1_655  T
C1160      N1163   1.158       .  T
C1169      C1170   1.407       .  A
C1169      C1174   1.408       .  A
C1169      C1183   1.443       .  S
C1170      C1175   1.495       .  S
C1170      C1171   1.396       .  A
C1171      C1172   1.402       .  A
C1171      H1190   1.086       .  S
C1172      C1173   1.437       .  A
C1172      C1184   1.444       .  S
C1173      C1174   1.419       .  A
C1174      H1189   1.083       .  S
C1175      C1176   1.403       .  A
C1175      C1180   1.411       .  A
C1176      C1177   1.408       .  A
C1176      H1191   1.085       .  S
C1177      C1178   1.420       .  A
C1177      C1181   1.444       .  S
C1178      C1179   1.407       .  A
C1179      C1180   1.404       .  A
C1179      H1192   1.084       .  S
C1180      C1182   1.444       .  S
C1181      N1185   1.157       .  T
C1182      N1186   1.157       .  T
C1183      N1188   1.157       .  T
C1184      N1187   1.158       .  T
C1193      C1194   1.406       .  A
C1193      C1198   1.399       .  A
C1193      C1207   1.443       .  S
C1194      C1199   1.502       .  S
C1194      C1195   1.401       .  A
C1195      C1196   1.409       .  A
C1195      H1214   1.085       .  S
C1196      C1197   1.434       .  A
C1196      C1208   1.442       .  S
C1197      C1198   1.423       .  A
C1198      H1213   1.077       .  S
C1199      C1200   1.398       .  A
C1199      C1204   1.409       .  A
C1200      C1201   1.401       .  A
C1200      H1215   1.085       .  S
C1201      C1202   1.436       .  A
C1201      C1205   1.445       .  S
C1202      C1203   1.420       .  A
C1203      C1204   1.410       .  A
C1203      H1216   1.079       .  S
C1204      C1206   1.443       .  S
C1205      N1209   1.158       .  T
C1206      N1210   1.157       .  T
C1207      N1212   1.156       .  T
C1208      N1211   1.157       .  T
C1217      C1218   1.416   1_565  A
C1217      C1222   1.407       .  A
C1217      C1231   1.444       .  S
C1218      C1223   1.507       .  S
C1218      C1219   1.406       .  A
C1219      C1220   1.407   1_545  A
C1219      H1238   1.085       .  S
C1220      C1221   1.419       .  A
C1220      C1232   1.443   1_565  S
C1221      C1222   1.408       .  A
C1222      H1237   1.084       .  S
C1223      C1224   1.399       .  A
C1223      C1228   1.411       .  A
C1224      C1225   1.406       .  A
C1224      H1239   1.085   1_545  S
C1225      C1226   1.432       .  A
C1225      C1229   1.441   1_545  S
C1226      C1227   1.420       .  A
C1227      C1228   1.409       .  A
C1227      H1240   1.080       .  S
C1228      C1230   1.444       .  S
C1229      N1233   1.157       .  T
C1230      N1234   1.157       .  T
C1231      N1236   1.157       .  T
C1232      N1235   1.157       .  T
C1241      C1242   1.400       .  A
C1241      C1246   1.396       .  A
C1241      C1255   1.444       .  S
C1242      C1247   1.483   1_455  S
C1242      C1243   1.399       .  A
C1243      C1244   1.407       .  A
C1243      H1262   1.085       .  S
C1244      C1245   1.429       .  A
C1244      C1256   1.443       .  S
C1245      C1246   1.420       .  A
C1246      H1261   1.080       .  S
C1247      C1248   1.396       .  A
C1247      C1252   1.403       .  A
C1248      C1249   1.409       .  A
C1248      H1263   1.085       .  S
C1249      C1250   1.437       .  A
C1249      C1253   1.441       .  S
C1250      C1251   1.421       .  A
C1251      C1252   1.393       .  A
C1251      H1264   1.084       .  S
C1252      C1254   1.446   1_655  S
C1253      N1257   1.158       .  T
C1254      N1258   1.157       .  T
C1255      N1260   1.157       .  T
C1256      N1259   1.157   1_545  T
C1265      C1266   1.416       .  A
C1265      C1270   1.414       .  A
C1265      C1279   1.443       .  S
C1266      C1271   1.509       .  S
C1266      C1267   1.398       .  A
C1267      C1268   1.391       .  A
C1267      H1286   1.084       .  S
C1268      C1269   1.434       .  A
C1268      C1280   1.446       .  S
C1269      C1270   1.419       .  A
C1270      H1285   1.081       .  S
C1271      C1272   1.406       .  A
C1271      C1276   1.412       .  A
C1272      C1273   1.412       .  A
C1272      H1287   1.084       .  S
C1273      C1274   1.433       .  A
C1273      C1277   1.441       .  S
C1274      C1275   1.417       .  A
C1275      C1276   1.393       .  A
C1275      H1288   1.084       .  S
C1276      C1278   1.447       .  S
C1277      N1281   1.158       .  T
C1278      N1282   1.157       .  T
C1279      N1284   1.157       .  T
C1280      N1283   1.157       .  T
C1289      C1290   1.412   1_545  A
C1289      C1294   1.403   1_545  A
C1289      C1303   1.444       .  S
C1290      C1295   1.497   1_565  S
C1290      C1291   1.405       .  A
C1291      C1292   1.407       .  A
C1291      H1310   1.085       .  S
C1292      C1293   1.419       .  A
C1292      C1304   1.443       .  S
C1293      C1294   1.407       .  A
C1294      H1309   1.084       .  S
C1295      C1296   1.398       .  A
C1295      C1300   1.407       .  A
C1296      C1297   1.404       .  A
C1296      H1311   1.085       .  S
C1297      C1298   1.432       .  A
C1297      C1301   1.443       .  S
C1298      C1299   1.419       .  A
C1299      C1300   1.405       .  A
C1299      H1312   1.080       .  S
C1300      C1302   1.444   1_545  S
C1301      N1305   1.158       .  T
C1302      N1306   1.157       .  T
C1303      N1308   1.157       .  T
C1304      N1307   1.157       .  T
C1313      C1314   1.421       .  A
C1313      C1318   1.389       .  A
C1313      C1327   1.448       .  S
C1314      C1319   1.524       .  S
C1314      C1315   1.413       .  A
C1315      C1316   1.420       .  A
C1315      H1334   1.081       .  S
C1316      C1317   1.430       .  A
C1316      C1328   1.442       .  S
C1317      C1318   1.412       .  A
C1318      H1333   1.078       .  S
C1319      C1320   1.400       .  A
C1319      C1324   1.419       .  A
C1320      C1321   1.400       .  A
C1320      H1335   1.085       .  S
C1321      C1322   1.436       .  A
C1321      C1325   1.443       .  S
C1322      C1323   1.417       .  A
C1323      C1324   1.414       .  A
C1323      H1336   1.085       .  S
C1324      C1326   1.441       .  S
C1325      N1329   1.158       .  T
C1326      N1330   1.157       .  T
C1327      N1332   1.158       .  T
C1328      N1331   1.157       .  T
C1337      C1338   1.403       .  A
C1337      C1342   1.399       .  A
C1337      C1351   1.445       .  S
C1338      C1343   1.494       .  S
C1338      C1339   1.399       .  A
C1339      C1340   1.408       .  A
C1339      H1358   1.085       .  S
C1340      C1341   1.433       .  A
C1340      C1352   1.441       .  S
C1341      C1342   1.425       .  A
C1342      H1357   1.077       .  S
C1343      C1344   1.396       .  A
C1343      C1348   1.404       .  A
C1344      C1345   1.405       .  A
C1344      H1359   1.086       .  S
C1345      C1346   1.434       .  A
C1345      C1349   1.440       .  S
C1346      C1347   1.425       .  A
C1347      C1348   1.405       .  A
C1347      H1360   1.078       .  S
C1348      C1350   1.445       .  S
C1349      N1353   1.157       .  T
C1350      N1354   1.157       .  T
C1351      N1356   1.157       .  T
C1352      N1355   1.157   1_545  T
C1361      C1362   1.404       .  A
C1361      C1366   1.401       .  A
C1361      C1375   1.443       .  S
C1362      C1367   1.483       .  S
C1362      C1363   1.398       .  A
C1363      C1364   1.403       .  A
C1363      H1382   1.085       .  S
C1364      C1365   1.431       .  A
C1364      C1376   1.444       .  S
C1365      C1366   1.419       .  A
C1366      H1381   1.083       .  S
C1367      C1368   1.396       .  A
C1367      C1372   1.403       .  A
C1368      C1369   1.398       .  A
C1368      H1383   1.086       .  S
C1369      C1370   1.433       .  A
C1369      C1373   1.446       .  S
C1370      C1371   1.419       .  A
C1371      C1372   1.404       .  A
C1371      H1384   1.079       .  S
C1372      C1374   1.443       .  S
C1373      N1377   1.158       .  T
C1374      N1378   1.157       .  T
C1375      N1380   1.157       .  T
C1376      N1379   1.158       .  T
C1385      C1386   1.412       .  A
C1385      C1390   1.401       .  A
C1385      C1399   1.442       .  S
C1386      C1391   1.502       .  S
C1386      C1387   1.401       .  A
C1387      C1388   1.405       .  A
C1387      H1406   1.085       .  S
C1388      C1389   1.432       .  A
C1388      C1400   1.443       .  S
C1389      C1390   1.414       .  A
C1390      H1405   1.080       .  S
C1391      C1392   1.404       .  A
C1391      C1396   1.411       .  A
C1392      C1393   1.406       .  A
C1392      H1407   1.084       .  S
C1393      C1394   1.430       .  A
C1393      C1397   1.444       .  S
C1394      C1395   1.416       .  A
C1395      C1396   1.393       .  A
C1395      H1408   1.074       .  S
C1396      C1398   1.444       .  S
C1397      N1401   1.157       .  T
C1398      N1402   1.158       .  T
C1399      N1404   1.156       .  T
C1400      N1403   1.157       .  T
C1409      C1410   1.414       .  A
C1409      C1414   1.408   1_455  A
C1409      C1423   1.443       .  S
C1410      C1415   1.512       .  S
C1410      C1411   1.400       .  A
C1411      C1412   1.396   1_455  A
C1411      H1430   1.085       .  S
C1412      C1413   1.433       .  A
C1412      C1424   1.437       .  S
C1413      C1414   1.420       .  A
C1414      H1429   1.084       .  S
C1415      C1416   1.403       .  A
C1415      C1420   1.412       .  A
C1416      C1417   1.406       .  A
C1416      H1431   1.081       .  S
C1417      C1418   1.436       .  A
C1417      C1421   1.444       .  S
C1418      C1419   1.419       .  A
C1419      C1420   1.399       .  A
C1419      H1432   1.068       .  S
C1420      C1422   1.447       .  S
C1421      N1425   1.158       .  T
C1422      N1426   1.157       .  T
C1423      N1428   1.157       .  T
C1424      N1427   1.156       .  T
C1433      C1434   1.407       .  A
C1433      C1438   1.397       .  A
C1433      C1447   1.445       .  S
C1434      C1439   1.495       .  S
C1434      C1435   1.400       .  A
C1435      C1436   1.409       .  A
C1435      H1454   1.085       .  S
C1436      C1437   1.433       .  A
C1436      C1448   1.439       .  S
C1437      C1438   1.420       .  A
C1438      H1453   1.083       .  S
C1439      C1440   1.397       .  A
C1439      C1444   1.408       .  A
C1440      C1441   1.400       .  A
C1440      H1455   1.086       .  S
C1441      C1442   1.436       .  A
C1441      C1445   1.445       .  S
C1442      C1443   1.421       .  A
C1443      C1444   1.408       .  A
C1443      H1456   1.084       .  S
C1444      C1446   1.443       .  S
C1445      N1449   1.158       .  T
C1446      N1450   1.157       .  T
C1447      N1452   1.157       .  T
C1448      N1451   1.157       .  T
C1457      C1458   1.406   1_655  A
C1457      C1462   1.403       .  A
C1457      C1471   1.443   1_655  S
C1458      C1463   1.480       .  S
C1458      C1459   1.396   1_455  A
C1459      C1460   1.398       .  A
C1459      H1478   1.085   1_655  S
C1460      C1461   1.428       .  A
C1460      C1472   1.444       .  S
C1461      C1462   1.418       .  A
C1462      H1477   1.083       .  S
C1463      C1464   1.394       .  A
C1463      C1468   1.403       .  A
C1464      C1465   1.405       .  A
C1464      H1479   1.086       .  S
C1465      C1466   1.439       .  A
C1465      C1469   1.443       .  S
C1466      C1467   1.420       .  A
C1467      C1468   1.394       .  A
C1467      H1480   1.084       .  S
C1468      C1470   1.445       .  S
C1469      N1473   1.158   1_545  T
C1470      N1474   1.157       .  T
C1471      N1476   1.157       .  T
C1472      N1475   1.158       .  T
C1481      C1482   1.403       .  A
C1481      C1486   1.410       .  A
C1481      C1495   1.443       .  S
C1482      C1487   1.489       .  S
C1482      C1483   1.389       .  A
C1483      C1484   1.392       .  A
C1483      H1502   1.087       .  S
C1484      C1485   1.436       .  A
C1484      C1496   1.438       .  S
C1485      C1486   1.428       .  A
C1486      H1501   1.080       .  S
C1487      C1488   1.399       .  A
C1487      C1492   1.405       .  A
C1488      C1489   1.408       .  A
C1488      H1503   1.085       .  S
C1489      C1490   1.431       .  A
C1489      C1493   1.441       .  S
C1490      C1491   1.423       .  A
C1491      C1492   1.394       .  A
C1491      H1504   1.076       .  S
C1492      C1494   1.448       .  S
C1493      N1497   1.157       .  T
C1494      N1498   1.157       .  T
C1495      N1500   1.157       .  T
C1496      N1499   1.157       .  T
C1505      C1506   1.409       .  A
C1505      C1510   1.403       .  A
C1505      C1519   1.444       .  S
C1506      C1511   1.486       .  S
C1506      C1507   1.402       .  A
C1507      C1508   1.401       .  A
C1507      H1526   1.085       .  S
C1508      C1509   1.415       .  A
C1508      C1520   1.443       .  S
C1509      C1510   1.408       .  A
C1510      H1525   1.084       .  S
C1511      C1512   1.395       .  A
C1511      C1516   1.401       .  A
C1512      C1513   1.404       .  A
C1512      H1527   1.085       .  S
C1513      C1514   1.434       .  A
C1513      C1517   1.441       .  S
C1514      C1515   1.417       .  A
C1515      C1516   1.399       .  A
C1515      H1528   1.068       .  S
C1516      C1518   1.445       .  S
C1517      N1521   1.158       .  T
C1518      N1522   1.157       .  T
C1519      N1524   1.157       .  T
C1520      N1523   1.157       .  T
C1529      C1530   1.409       .  A
C1529      C1534   1.401       .  A
C1529      C1543   1.445       .  S
C1530      C1535   1.483   1_554  S
C1530      C1531   1.400       .  A
C1531      C1532   1.401       .  A
C1531      H1550   1.085       .  S
C1532      C1533   1.417       .  A
C1532      C1544   1.444       .  S
C1533      C1534   1.408       .  A
C1534      H1549   1.084       .  S
C1535      C1536   1.401       .  A
C1535      C1540   1.409       .  A
C1536      C1537   1.400       .  A
C1536      H1551   1.085       .  S
C1537      C1538   1.417       .  A
C1537      C1541   1.445       .  S
C1538      C1539   1.405       .  A
C1539      C1540   1.399       .  A
C1539      H1552   1.085       .  S
C1540      C1542   1.443       .  S
C1541      N1545   1.158       .  T
C1542      N1546   1.157   1_556  T
C1543      N1548   1.157       .  T
C1544      N1547   1.157       .  T
C1553      C1554   1.409       .  A
C1553      C1558   1.401       .  A
C1553      C1567   1.443       .  S
C1554      C1559   1.488       .  S
C1554      C1555   1.403       .  A
C1555      C1556   1.404       .  A
C1555      H1574   1.085       .  S
C1556      C1557   1.418       .  A
C1556      C1568   1.444       .  S
C1557      C1558   1.407       .  A
C1558      H1573   1.084       .  S
C1559      C1560   1.402       .  A
C1559      C1564   1.411       .  A
C1560      C1561   1.403       .  A
C1560      H1575   1.085       .  S
C1561      C1562   1.418       .  A
C1561      C1565   1.443       .  S
C1562      C1563   1.407       .  A
C1563      C1564   1.401       .  A
C1563      H1576   1.085       .  S
C1564      C1566   1.445       .  S
C1565      N1569   1.157       .  T
C1566      N1570   1.157       .  T
C1567      N1572   1.157       .  T
C1568      N1571   1.157       .  T
C1577      C1578   1.413       .  A
C1577      C1582   1.406   1_545  A
C1577      C1591   1.444       .  S
C1578      C1583   1.498       .  S
C1578      C1579   1.403       .  A
C1579      C1580   1.403   1_545  A
C1579      H1598   1.085       .  S
C1580      C1581   1.419       .  A
C1580      C1592   1.444       .  S
C1581      C1582   1.408       .  A
C1582      H1597   1.084       .  S
C1583      C1584   1.401       .  A
C1583      C1588   1.407       .  A
C1584      C1585   1.406       .  A
C1584      H1599   1.085       .  S
C1585      C1586   1.431       .  A
C1585      C1589   1.445       .  S
C1586      C1587   1.422       .  A
C1587      C1588   1.400       .  A
C1587      H1600   1.079       .  S
C1588      C1590   1.445       .  S
C1589      N1593   1.157       .  T
C1590      N1594   1.157   1_545  T
C1591      N1596   1.157       .  T
C1592      N1595   1.157       .  T
C1601      C1602   1.412       .  A
C1601      C1606   1.400       .  A
C1601      C1615   1.444       .  S
C1602      C1607   1.498       .  S
C1602      C1603   1.406       .  A
C1603      C1604   1.408       .  A
C1603      H1622   1.085       .  S
C1604      C1605   1.419       .  A
C1604      C1616   1.444       .  S
C1605      C1606   1.406       .  A
C1606      H1621   1.084       .  S
C1607      C1608   1.405       .  A
C1607      C1612   1.413       .  A
C1608      C1609   1.402       .  A
C1608      H1623   1.085       .  S
C1609      C1610   1.416       .  A
C1609      C1613   1.444       .  S
C1610      C1611   1.407       .  A
C1611      C1612   1.407       .  A
C1611      H1624   1.084       .  S
C1612      C1614   1.443       .  S
C1613      N1617   1.157       .  T
C1614      N1618   1.157       .  T
C1615      N1620   1.157       .  T
C1616      N1619   1.158       .  T
C1625      C1626   1.412       .  A
C1625      C1630   1.400       .  A
C1625      C1639   1.444   1_554  S
C1626      C1631   1.492   1_564  S
C1626      C1627   1.403   1_565  A
C1627      C1628   1.404   1_545  A
C1627      H1646   1.085       .  S
C1628      C1629   1.419       .  A
C1628      C1640   1.444   1_565  S
C1629      C1630   1.405       .  A
C1630      H1645   1.084       .  S
C1631      C1632   1.402   1_545  A
C1631      C1636   1.412       .  A
C1632      C1633   1.398       .  A
C1632      H1647   1.085       .  S
C1633      C1634   1.416   1_565  A
C1633      C1637   1.444       .  S
C1634      C1635   1.408       .  A
C1635      C1636   1.405       .  A
C1635      H1648   1.084       .  S
C1636      C1638   1.444       .  S
C1637      N1641   1.157       .  T
C1638      N1642   1.157   1_556  T
C1639      N1644   1.157       .  T
C1640      N1643   1.158       .  T
C1649      C1650   1.409       .  A
C1649      C1654   1.399       .  A
C1649      C1663   1.444       .  S
C1650      C1655   1.485   1_655  S
C1650      C1651   1.402       .  A
C1651      C1652   1.404       .  A
C1651      H1670   1.085       .  S
C1652      C1653   1.418       .  A
C1652      C1664   1.444       .  S
C1653      C1654   1.405       .  A
C1654      H1669   1.084       .  S
C1655      C1656   1.402       .  A
C1655      C1660   1.409       .  A
C1656      C1657   1.405       .  A
C1656      H1671   1.085       .  S
C1657      C1658   1.417       .  A
C1657      C1661   1.443       .  S
C1658      C1659   1.407       .  A
C1659      C1660   1.397       .  A
C1659      H1672   1.084       .  S
C1660      C1662   1.445       .  S
C1661      N1665   1.157       .  T
C1662      N1666   1.157   1_455  T
C1663      N1668   1.157       .  T
C1664      N1667   1.158       .  T
C1673      C1674   1.410       .  A
C1673      C1678   1.407       .  A
C1673      C1687   1.444       .  S
C1674      C1679   1.490       .  S
C1674      C1675   1.403       .  A
C1675      C1676   1.401       .  A
C1675      H1694   1.085       .  S
C1676      C1677   1.417       .  A
C1676      C1688   1.444       .  S
C1677      C1678   1.411       .  A
C1678      H1693   1.084       .  S
C1679      C1680   1.392       .  A
C1679      C1684   1.407       .  A
C1680      C1681   1.396       .  A
C1680      H1695   1.086       .  S
C1681      C1682   1.439       .  A
C1681      C1685   1.445       .  S
C1682      C1683   1.420       .  A
C1683      C1684   1.410       .  A
C1683      H1696   1.084       .  S
C1684      C1686   1.442       .  S
C1685      N1689   1.158       .  T
C1686      N1690   1.157       .  T
C1687      N1692   1.157       .  T
C1688      N1691   1.157       .  T
C1697      C1698   1.407       .  A
C1697      C1702   1.397       .  A
C1697      C1711   1.444       .  S
C1698      C1703   1.481   1_655  S
C1698      C1699   1.402       .  A
C1699      C1700   1.402       .  A
C1699      H1718   1.085       .  S
C1700      C1701   1.417       .  A
C1700      C1712   1.444       .  S
C1701      C1702   1.406       .  A
C1702      H1717   1.084       .  S
C1703      C1704   1.403       .  A
C1703      C1708   1.407       .  A
C1704      C1705   1.404       .  A
C1704      H1719   1.085       .  S
C1705      C1706   1.416       .  A
C1705      C1709   1.443       .  S
C1706      C1707   1.406       .  A
C1707      C1708   1.395       .  A
C1707      H1720   1.085       .  S
C1708      C1710   1.445       .  S
C1709      N1713   1.157       .  T
C1710      N1714   1.157       .  T
C1711      N1716   1.157       .  T
C1712      N1715   1.157       .  T
C1721      C1722   1.412       .  A
C1721      C1726   1.401       .  A
C1721      C1735   1.444       .  S
C1722      C1727   1.493   1_556  S
C1722      C1723   1.404       .  A
C1723      C1724   1.405       .  A
C1723      H1742   1.085       .  S
C1724      C1725   1.417       .  A
C1724      C1736   1.444       .  S
C1725      C1726   1.407       .  A
C1726      H1741   1.085       .  S
C1727      C1728   1.404       .  A
C1727      C1732   1.411       .  A
C1728      C1729   1.405       .  A
C1728      H1743   1.085       .  S
C1729      C1730   1.417       .  A
C1729      C1733   1.443       .  S
C1730      C1731   1.408       .  A
C1731      C1732   1.401       .  A
C1731      H1744   1.084       .  S
C1732      C1734   1.444       .  S
C1733      N1737   1.157       .  T
C1734      N1738   1.157       .  T
C1735      N1740   1.157       .  T
C1736      N1739   1.157       .  T
C1745      C1746   1.410       .  A
C1745      C1750   1.401   1_545  A
C1745      C1759   1.444       .  S
C1746      C1751   1.488       .  S
C1746      C1747   1.402       .  A
C1747      C1748   1.405       .  A
C1747      H1766   1.085       .  S
C1748      C1749   1.419   1_545  A
C1748      C1760   1.444       .  S
C1749      C1750   1.406       .  A
C1750      H1765   1.084       .  S
C1751      C1752   1.394       .  A
C1751      C1756   1.402       .  A
C1752      C1753   1.401       .  A
C1752      H1767   1.086       .  S
C1753      C1754   1.433       .  A
C1753      C1757   1.440       .  S
C1754      C1755   1.425       .  A
C1755      C1756   1.403       .  A
C1755      H1768   1.079       .  S
C1756      C1758   1.444       .  S
C1757      N1761   1.157       .  T
C1758      N1762   1.157       .  T
C1759      N1764   1.157       .  T
C1760      N1763   1.157       .  T
C1769      C1770   1.411       .  A
C1769      C1774   1.401       .  A
C1769      C1783   1.444       .  S
C1770      C1775   1.487   1_655  S
C1770      C1771   1.402       .  A
C1771      C1772   1.401       .  A
C1771      H1790   1.085       .  S
C1772      C1773   1.416       .  A
C1772      C1784   1.444       .  S
C1773      C1774   1.407       .  A
C1774      H1789   1.084       .  S
C1775      C1776   1.402       .  A
C1775      C1780   1.411       .  A
C1776      C1777   1.401       .  A
C1776      H1791   1.085       .  S
C1777      C1778   1.416       .  A
C1777      C1781   1.443       .  S
C1778      C1779   1.407       .  A
C1779      C1780   1.400       .  A
C1779      H1792   1.085       .  S
C1780      C1782   1.445       .  S
C1781      N1785   1.157       .  T
C1782      N1786   1.157       .  T
C1783      N1788   1.157   1_565  T
C1784      N1787   1.157       .  T
C1793      C1794   1.414       .  A
C1793      C1798   1.406       .  A
C1793      C1807   1.443       .  S
C1794      C1799   1.501       .  S
C1794      C1795   1.406       .  A
C1795      C1796   1.404       .  A
C1795      H1814   1.085       .  S
C1796      C1797   1.417       .  A
C1796      C1808   1.444       .  S
C1797      C1798   1.406       .  A
C1798      H1813   1.084       .  S
C1799      C1800   1.407       .  A
C1799      C1804   1.414       .  A
C1800      C1801   1.405       .  A
C1800      H1815   1.084       .  S
C1801      C1802   1.414       .  A
C1801      C1805   1.444       .  S
C1802      C1803   1.406       .  A
C1803      C1804   1.404       .  A
C1803      H1816   1.085       .  S
C1804      C1806   1.444       .  S
C1805      N1809   1.157       .  T
C1806      N1810   1.157       .  T
C1807      N1812   1.157       .  T
C1808      N1811   1.157       .  T
C1817      C1818   1.411       .  A
C1817      C1822   1.395       .  A
C1817      C1831   1.445       .  S
C1818      C1823   1.489   1_455  S
C1818      C1819   1.405       .  A
C1819      C1820   1.405       .  A
C1819      H1838   1.085       .  S
C1820      C1821   1.416       .  A
C1820      C1832   1.444       .  S
C1821      C1822   1.405       .  A
C1822      H1837   1.085       .  S
C1823      C1824   1.404       .  A
C1823      C1828   1.410       .  A
C1824      C1825   1.398       .  A
C1824      H1839   1.085       .  S
C1825      C1826   1.416       .  A
C1825      C1829   1.444       .  S
C1826      C1827   1.407       .  A
C1827      C1828   1.401       .  A
C1827      H1840   1.084       .  S
C1828      C1830   1.443   1_545  S
C1829      N1833   1.157       .  T
C1830      N1834   1.157       .  T
C1831      N1836   1.157       .  T
C1832      N1835   1.157       .  T
C1841      C1842   1.411       .  A
C1841      C1846   1.402       .  A
C1841      C1855   1.444       .  S
C1842      C1847   1.491       .  S
C1842      C1843   1.403       .  A
C1843      C1844   1.403       .  A
C1843      H1862   1.085       .  S
C1844      C1845   1.417       .  A
C1844      C1856   1.444       .  S
C1845      C1846   1.407       .  A
C1846      H1861   1.085       .  S
C1847      C1848   1.402       .  A
C1847      C1852   1.411       .  A
C1848      C1849   1.401       .  A
C1848      H1863   1.085       .  S
C1849      C1850   1.418       .  A
C1849      C1853   1.444       .  S
C1850      C1851   1.408       .  A
C1851      C1852   1.404       .  A
C1851      H1864   1.084       .  S
C1852      C1854   1.444       .  S
C1853      N1857   1.157       .  T
C1854      N1858   1.157       .  T
C1855      N1860   1.157       .  T
C1856      N1859   1.157       .  T
C1865      C1866   1.410   1_554  A
C1865      C1870   1.400       .  A
C1865      C1879   1.444   1_565  S
C1866      C1871   1.491       .  S
C1866      C1867   1.404   1_556  A
C1867      C1868   1.405       .  A
C1867      H1886   1.085   1_554  S
C1868      C1869   1.417       .  A
C1868      C1880   1.444       .  S
C1869      C1870   1.406       .  A
C1870      H1885   1.085       .  S
C1871      C1872   1.405       .  A
C1871      C1876   1.411   1_565  A
C1872      C1873   1.402       .  A
C1872      H1887   1.085       .  S
C1873      C1874   1.414   1_565  A
C1873      C1877   1.444       .  S
C1874      C1875   1.405       .  A
C1875      C1876   1.401       .  A
C1875      H1888   1.085       .  S
C1876      C1878   1.443       .  S
C1877      N1881   1.157       .  T
C1878      N1882   1.157       .  T
C1879      N1884   1.157       .  T
C1880      N1883   1.157       .  T
C1889      C1890   1.403       .  A
C1889      C1894   1.396       .  A
C1889      C1903   1.445       .  S
C1890      C1895   1.487       .  S
C1890      C1891   1.398       .  A
C1891      C1892   1.407       .  A
C1891      H1910   1.085       .  S
C1892      C1893   1.435       .  A
C1892      C1904   1.442       .  S
C1893      C1894   1.424       .  A
C1894      H1909   1.084       .  S
C1895      C1896   1.396       .  A
C1895      C1900   1.403       .  A
C1896      C1897   1.405       .  A
C1896      H1911   1.085       .  S
C1897      C1898   1.435       .  A
C1897      C1901   1.443       .  S
C1898      C1899   1.424       .  A
C1899      C1900   1.397       .  A
C1899      H1912   1.076       .  S
C1900      C1902   1.447       .  S
C1901      N1905   1.157       .  T
C1902      N1906   1.157       .  T
C1903      N1908   1.157       .  T
C1904      N1907   1.158       .  T
C1913      C1914   1.407       .  A
C1913      C1918   1.406       .  A
C1913      C1927   1.443       .  S
C1914      C1919   1.492   1_455  S
C1914      C1915   1.396       .  A
C1915      C1916   1.400       .  A
C1915      H1934   1.086       .  S
C1916      C1917   1.437       .  A
C1916      C1928   1.445       .  S
C1917      C1918   1.421       .  A
C1918      H1933   1.084       .  S
C1919      C1920   1.398       .  A
C1919      C1924   1.404       .  A
C1920      C1921   1.410       .  A
C1920      H1935   1.085       .  S
C1921      C1922   1.439       .  A
C1921      C1925   1.442       .  S
C1922      C1923   1.422       .  A
C1923      C1924   1.394       .  A
C1923      H1936   1.084       .  S
C1924      C1926   1.446   1_655  S
C1925      N1929   1.158       .  T
C1926      N1930   1.157       .  T
C1927      N1932   1.157       .  T
C1928      N1931   1.158       .  T
C1937      C1938   1.404       .  A
C1937      C1942   1.400   1_455  A
C1937      C1951   1.445       .  S
C1938      C1943   1.483       .  S
C1938      C1939   1.394   1_455  A
C1939      C1940   1.401       .  A
C1939      H1958   1.085   1_655  S
C1940      C1941   1.434       .  A
C1940      C1952   1.444       .  S
C1941      C1942   1.419       .  A
C1942      H1957   1.077       .  S
C1943      C1944   1.396       .  A
C1943      C1948   1.405       .  A
C1944      C1945   1.404       .  A
C1944      H1959   1.085       .  S
C1945      C1946   1.433       .  A
C1945      C1949   1.442       .  S
C1946      C1947   1.423       .  A
C1947      C1948   1.398       .  A
C1947      H1960   1.084       .  S
C1948      C1950   1.445       .  S
C1949      N1953   1.158       .  T
C1950      N1954   1.157       .  T
C1951      N1956   1.157       .  T
C1952      N1955   1.157       .  T
C1961      C1962   1.402       .  A
C1961      C1966   1.397       .  A
C1961      C1975   1.445       .  S
C1962      C1967   1.485       .  S
C1962      C1963   1.396       .  A
C1963      C1964   1.403       .  A
C1963      H1982   1.085       .  S
C1964      C1965   1.433       .  A
C1964      C1976   1.443       .  S
C1965      C1966   1.421       .  A
C1966      H1981   1.074       .  S
C1967      C1968   1.398       .  A
C1967      C1972   1.404       .  A
C1968      C1969   1.407       .  A
C1968      H1983   1.085       .  S
C1969      C1970   1.435       .  A
C1969      C1973   1.441       .  S
C1970      C1971   1.421       .  A
C1971      C1972   1.393       .  A
C1971      H1984   1.084       .  S
C1972      C1974   1.446       .  S
C1973      N1977   1.158       .  T
C1974      N1978   1.157       .  T
C1975      N1980   1.157       .  T
C1976      N1979   1.157       .  T
C1985      C1986   1.408       .  A
C1985      C1990   1.408       .  A
C1985      C1999   1.443       .  S
C1986      C1991   1.493       .  S
C1986      C1987   1.396       .  A
C1987      C1988   1.393       .  A
C1987      H2006   1.086       .  S
C1988      C1989   1.433       .  A
C1988      C2000   1.446       .  S
C1989      C1990   1.419       .  A
C1990      H2005   1.079       .  S
C1991      C1992   1.398       .  A
C1991      C1996   1.406       .  A
C1992      C1993   1.407       .  A
C1992      H2007   1.085       .  S
C1993      C1994   1.437       .  A
C1993      C1997   1.443       .  S
C1994      C1995   1.422       .  A
C1995      C1996   1.395       .  A
C1995      H2008   1.075       .  S
C1996      C1998   1.447       .  S
C1997      N2001   1.157       .  T
C1998      N2002   1.157       .  T
C1999      N2004   1.157       .  T
C2000      N2003   1.158       .  T
C2009      C2010   1.410       .  A
C2009      C2014   1.405       .  A
C2009      C2023   1.445       .  S
C2010      C2015   1.494       .  S
C2010      C2011   1.397       .  A
C2011      C2012   1.399       .  A
C2011      H2030   1.085       .  S
C2012      C2013   1.434       .  A
C2012      C2024   1.446       .  S
C2013      C2014   1.419       .  A
C2014      H2029   1.079       .  S
C2015      C2016   1.397       .  A
C2015      C2020   1.409       .  A
C2016      C2017   1.404       .  A
C2016      H2031   1.085       .  S
C2017      C2018   1.432       .  A
C2017      C2021   1.441       .  S
C2018      C2019   1.418       .  A
C2019      C2020   1.400       .  A
C2019      H2032   1.081       .  S
C2020      C2022   1.444       .  S
C2021      N2025   1.157       .  T
C2022      N2026   1.157       .  T
C2023      N2028   1.157       .  T
C2024      N2027   1.157       .  T
C2033      C2034   1.404       .  A
C2033      C2038   1.406       .  A
C2033      C2047   1.443       .  S
C2034      C2039   1.490   1_655  S
C2034      C2035   1.397       .  A
C2035      C2036   1.395       .  A
C2035      H2054   1.086       .  S
C2036      C2037   1.436       .  A
C2036      C2048   1.446       .  S
C2037      C2038   1.422       .  A
C2038      H2053   1.078       .  S
C2039      C2040   1.403       .  A
C2039      C2044   1.403       .  A
C2040      C2041   1.409       .  A
C2040      H2055   1.084       .  S
C2041      C2042   1.428       .  A
C2041      C2045   1.444       .  S
C2042      C2043   1.421       .  A
C2043      C2044   1.392       .  A
C2043      H2056   1.080       .  S
C2044      C2046   1.445       .  S
C2045      N2049   1.157       .  T
C2046      N2050   1.157       .  T
C2047      N2052   1.157       .  T
C2048      N2051   1.158       .  T
C2057      C2058   1.412       .  A
C2057      C2062   1.405       .  A
C2057      C2071   1.444       .  S
C2058      C2063   1.508       .  S
C2058      C2059   1.399       .  A
C2059      C2060   1.398       .  A
C2059      H2078   1.085       .  S
C2060      C2061   1.433       .  A
C2060      C2072   1.440       .  S
C2061      C2062   1.425       .  A
C2062      H2077   1.084       .  S
C2063      C2064   1.407       .  A
C2063      C2068   1.415       .  A
C2064      C2065   1.411       .  A
C2064      H2079   1.083       .  S
C2065      C2066   1.431       .  A
C2065      C2069   1.443       .  S
C2066      C2067   1.414       .  A
C2067      C2068   1.390       .  A
C2067      H2080   1.077       .  S
C2068      C2070   1.448       .  S
C2069      N2073   1.157       .  T
C2070      N2074   1.158       .  T
C2071      N2076   1.158       .  T
C2072      N2075   1.158       .  T
C2081      C2082   1.408       .  A
C2081      C2086   1.401       .  A
C2081      C2095   1.446       .  S
C2082      C2087   1.494       .  S
C2082      C2083   1.398       .  A
C2083      C2084   1.404       .  A
C2083      H2102   1.085       .  S
C2084      C2085   1.434       .  A
C2084      C2096   1.445       .  S
C2085      C2086   1.418       .  A
C2086      H2101   1.074       .  S
C2087      C2088   1.396       .  A
C2087      C2092   1.409       .  A
C2088      C2089   1.396       .  A
C2088      H2103   1.086       .  S
C2089      C2090   1.432       .  A
C2089      C2093   1.444       .  S
C2090      C2091   1.419       .  A
C2091      C2092   1.408       .  A
C2091      H2104   1.080       .  S
C2092      C2094   1.443       .  S
C2093      N2097   1.157       .  T
C2094      N2098   1.157       .  T
C2095      N2100   1.157       .  T
C2096      N2099   1.157       .  T
C2105      C2106   1.411       .  A
C2105      C2110   1.411       .  A
C2105      C2119   1.442       .  S
C2106      C2111   1.514       .  S
C2106      C2107   1.398       .  A
C2107      C2108   1.399       .  A
C2107      H2126   1.086       .  S
C2108      C2109   1.438       .  A
C2108      C2120   1.441       .  S
C2109      C2110   1.426       .  A
C2110      H2125   1.084       .  S
C2111      C2112   1.406       .  A
C2111      C2116   1.411       .  A
C2112      C2113   1.415       .  A
C2112      H2127   1.083       .  S
C2113      C2114   1.437       .  A
C2113      C2117   1.444       .  S
C2114      C2115   1.418       .  A
C2115      C2116   1.392       .  A
C2115      H2128   1.070       .  S
C2116      C2118   1.448       .  S
C2117      N2121   1.157       .  T
C2118      N2122   1.157       .  T
C2119      N2124   1.157       .  T
C2120      N2123   1.158       .  T
C2129      C2130   1.417       .  A
C2129      C2134   1.415       .  A
C2129      C2143   1.442       .  S
C2130      C2135   1.520       .  S
C2130      C2131   1.405       .  A
C2131      C2132   1.393       .  A
C2131      H2150   1.082       .  S
C2132      C2133   1.429       .  A
C2132      C2144   1.444       .  S
C2133      C2134   1.423       .  A
C2134      H2149   1.084       .  S
C2135      C2136   1.412       .  A
C2135      C2140   1.413       .  A
C2136      C2137   1.415       .  A
C2136      H2151   1.080       .  S
C2137      C2138   1.426       .  A
C2137      C2141   1.445       .  S
C2138      C2139   1.417       .  A
C2139      C2140   1.395       .  A
C2139      H2152   1.080       .  S
C2140      C2142   1.447       .  S
C2141      N2145   1.157       .  T
C2142      N2146   1.157       .  T
C2143      N2148   1.158       .  T
C2144      N2147   1.158       .  T
C2153      C2154   1.406       .  A
C2153      C2158   1.409       .  A
C2153      C2167   1.442       .  S
C2154      C2159   1.495   1_655  S
C2154      C2155   1.399       .  A
C2155      C2156   1.393       .  A
C2155      H2174   1.086       .  S
C2156      C2157   1.429       .  A
C2156      C2168   1.443       .  S
C2157      C2158   1.423       .  A
C2158      H2173   1.080       .  S
C2159      C2160   1.405       .  A
C2159      C2164   1.405       .  A
C2160      C2161   1.413       .  A
C2160      H2175   1.084       .  S
C2161      C2162   1.429       .  A
C2161      C2165   1.444       .  S
C2162      C2163   1.419       .  A
C2163      C2164   1.391       .  A
C2163      H2176   1.080       .  S
C2164      C2166   1.447       .  S
C2165      N2169   1.157       .  T
C2166      N2170   1.157       .  T
C2167      N2172   1.157       .  T
C2168      N2171   1.157       .  T
C2177      C2178   1.403       .  A
C2177      C2182   1.402       .  A
C2177      C2191   1.445       .  S
C2178      C2183   1.488       .  S
C2178      C2179   1.396       .  A
C2179      C2180   1.404       .  A
C2179      H2198   1.085       .  S
C2180      C2181   1.433       .  A
C2180      C2192   1.444       .  S
C2181      C2182   1.423       .  A
C2182      H2197   1.079       .  S
C2183      C2184   1.402       .  A
C2183      C2188   1.408       .  A
C2184      C2185   1.405       .  A
C2184      H2199   1.085       .  S
C2185      C2186   1.418       .  A
C2185      C2189   1.443       .  S
C2186      C2187   1.409       .  A
C2187      C2188   1.403       .  A
C2187      H2200   1.084       .  S
C2188      C2190   1.444       .  S
C2189      N2193   1.157       .  T
C2190      N2194   1.157       .  T
C2191      N2196   1.157       .  T
C2192      N2195   1.157       .  T
C2201      C2202   1.413       .  A
C2201      C2206   1.403       .  A
C2201      C2215   1.444       .  S
C2202      C2207   1.494       .  S
C2202      C2203   1.404       .  A
C2203      C2204   1.403       .  A
C2203      H2222   1.085       .  S
C2204      C2205   1.416       .  A
C2204      C2216   1.444       .  S
C2205      C2206   1.407       .  A
C2206      H2221   1.084       .  S
C2207      C2208   1.404       .  A
C2207      C2212   1.412       .  A
C2208      C2209   1.405       .  A
C2208      H2223   1.085       .  S
C2209      C2210   1.417       .  A
C2209      C2213   1.443       .  S
C2210      C2211   1.408       .  A
C2211      C2212   1.402       .  A
C2211      H2224   1.084       .  S
C2212      C2214   1.445       .  S
C2213      N2217   1.157       .  T
C2214      N2218   1.157       .  T
C2215      N2220   1.157       .  T
C2216      N2219   1.157       .  T
C2225      C2226   1.413       .  A
C2225      C2230   1.405       .  A
C2225      C2239   1.443       .  S
C2226      C2231   1.495   1_655  S
C2226      C2227   1.403       .  A
C2227      C2228   1.400       .  A
C2227      H2246   1.085       .  S
C2228      C2229   1.418       .  A
C2228      C2240   1.445       .  S
C2229      C2230   1.407       .  A
C2230      H2245   1.084       .  S
C2231      C2232   1.403       .  A
C2231      C2236   1.413       .  A
C2232      C2233   1.403       .  A
C2232      H2247   1.085       .  S
C2233      C2234   1.420       .  A
C2233      C2237   1.444       .  S
C2234      C2235   1.407       .  A
C2235      C2236   1.404       .  A
C2235      H2248   1.084       .  S
C2236      C2238   1.444       .  S
C2237      N2241   1.157       .  T
C2238      N2242   1.157       .  T
C2239      N2244   1.157       .  T
C2240      N2243   1.157       .  T
C2249      C2250   1.411       .  A
C2249      C2254   1.404       .  A
C2249      C2263   1.444       .  S
C2250      C2255   1.496       .  S
C2250      C2251   1.403       .  A
C2251      C2252   1.408       .  A
C2251      H2270   1.085       .  S
C2252      C2253   1.420       .  A
C2252      C2264   1.444       .  S
C2253      C2254   1.407       .  A
C2254      H2269   1.084       .  S
C2255      C2256   1.395       .  A
C2255      C2260   1.407       .  A
C2256      C2257   1.401       .  A
C2256      H2271   1.086       .  S
C2257      C2258   1.435       .  A
C2257      C2261   1.444       .  S
C2258      C2259   1.422       .  A
C2259      C2260   1.410       .  A
C2259      H2272   1.080       .  S
C2260      C2262   1.443       .  S
C2261      N2265   1.158       .  T
C2262      N2266   1.157       .  T
C2263      N2268   1.157       .  T
C2264      N2267   1.157       .  T
C2273      C2274   1.411       .  A
C2273      C2278   1.402       .  A
C2273      C2287   1.444       .  S
C2274      C2279   1.493       .  S
C2274      C2275   1.404       .  A
C2275      C2276   1.406       .  A
C2275      H2294   1.085       .  S
C2276      C2277   1.417       .  A
C2276      C2288   1.443       .  S
C2277      C2278   1.407       .  A
C2278      H2293   1.084       .  S
C2279      C2280   1.405       .  A
C2279      C2284   1.411       .  A
C2280      C2281   1.404       .  A
C2280      H2295   1.085       .  S
C2281      C2282   1.416       .  A
C2281      C2285   1.444       .  S
C2282      C2283   1.407       .  A
C2283      C2284   1.401       .  A
C2283      H2296   1.085       .  S
C2284      C2286   1.444       .  S
C2285      N2289   1.157       .  T
C2286      N2290   1.157       .  T
C2287      N2292   1.157       .  T
C2288      N2291   1.157       .  T
C2297      C2298   1.410       .  A
C2297      C2302   1.401       .  A
C2297      C2311   1.445       .  S
C2298      C2303   1.489       .  S
C2298      C2299   1.403       .  A
C2299      C2300   1.406       .  A
C2299      H2318   1.085       .  S
C2300      C2301   1.415       .  A
C2300      C2312   1.443       .  S
C2301      C2302   1.407       .  A
C2302      H2317   1.085       .  S
C2303      C2304   1.404       .  A
C2303      C2308   1.409       .  A
C2304      C2305   1.407       .  A
C2304      H2319   1.085       .  S
C2305      C2306   1.418       .  A
C2305      C2309   1.444       .  S
C2306      C2307   1.405       .  A
C2307      C2308   1.399       .  A
C2307      H2320   1.085       .  S
C2308      C2310   1.444       .  S
C2309      N2313   1.158       .  T
C2310      N2314   1.157       .  T
C2311      N2316   1.157       .  T
C2312      N2315   1.157       .  T
C2321      C2322   1.409       .  A
C2321      C2326   1.402       .  A
C2321      C2335   1.444       .  S
C2322      C2327   1.487       .  S
C2322      C2323   1.401       .  A
C2323      C2324   1.402       .  A
C2323      H2342   1.085       .  S
C2324      C2325   1.418       .  A
C2324      C2336   1.444       .  S
C2325      C2326   1.408       .  A
C2326      H2341   1.084       .  S
C2327      C2328   1.400       .  A
C2327      C2332   1.409       .  A
C2328      C2329   1.401       .  A
C2328      H2343   1.085       .  S
C2329      C2330   1.419       .  A
C2329      C2333   1.444       .  S
C2330      C2331   1.409       .  A
C2331      C2332   1.404       .  A
C2331      H2344   1.084       .  S
C2332      C2334   1.444       .  S
C2333      N2337   1.157       .  T
C2334      N2338   1.157       .  T
C2335      N2340   1.157       .  T
C2336      N2339   1.157       .  T
C2345      C2346   1.408       .  A
C2345      C2350   1.404       .  A
C2345      C2359   1.444       .  S
C2346      C2351   1.487       .  S
C2346      C2347   1.400       .  A
C2347      C2348   1.403       .  A
C2347      H2366   1.085       .  S
C2348      C2349   1.419       .  A
C2348      C2360   1.443       .  S
C2349      C2350   1.410       .  A
C2350      H2365   1.084   1_565  S
C2351      C2352   1.397       .  A
C2351      C2356   1.402       .  A
C2352      C2353   1.405       .  A
C2352      H2367   1.085       .  S
C2353      C2354   1.430       .  A
C2353      C2357   1.443       .  S
C2354      C2355   1.423       .  A
C2355      C2356   1.401       .  A
C2355      H2368   1.080       .  S
C2356      C2358   1.445       .  S
C2357      N2361   1.157       .  T
C2358      N2362   1.157       .  T
C2359      N2364   1.157       .  T
C2360      N2363   1.157       .  T
C2369      C2370   1.411       .  A
C2369      C2374   1.402       .  A
C2369      C2383   1.445       .  S
C2370      C2375   1.492       .  S
C2370      C2371   1.403       .  A
C2371      C2372   1.404       .  A
C2371      H2390   1.085       .  S
C2372      C2373   1.417       .  A
C2372      C2384   1.443       .  S
C2373      C2374   1.408       .  A
C2374      H2389   1.084       .  S
C2375      C2376   1.404       .  A
C2375      C2380   1.411       .  A
C2376      C2377   1.403       .  A
C2376      H2391   1.085       .  S
C2377      C2378   1.418       .  A
C2377      C2381   1.445       .  S
C2378      C2379   1.406       .  A
C2379      C2380   1.402       .  A
C2379      H2392   1.084       .  S
C2380      C2382   1.444       .  S
C2381      N2385   1.158       .  T
C2382      N2386   1.157       .  T
C2383      N2388   1.157       .  T
C2384      N2387   1.157       .  T
C2393      C2394   1.408       .  A
C2393      C2398   1.402       .  A
C2393      C2407   1.443   1_545  S
C2394      C2399   1.487       .  S
C2394      C2395   1.401       .  A
C2395      C2396   1.403       .  A
C2395      H2414   1.085       .  S
C2396      C2397   1.419       .  A
C2396      C2408   1.444       .  S
C2397      C2398   1.408       .  A
C2398      H2413   1.084       .  S
C2399      C2400   1.401       .  A
C2399      C2404   1.407       .  A
C2400      C2401   1.403       .  A
C2400      H2415   1.085       .  S
C2401      C2402   1.419       .  A
C2401      C2405   1.444       .  S
C2402      C2403   1.408       .  A
C2403      C2404   1.403       .  A
C2403      H2416   1.084   1_545  S
C2404      C2406   1.443   1_545  S
C2405      N2409   1.157       .  T
C2406      N2410   1.157       .  T
C2407      N2412   1.157       .  T
C2408      N2411   1.157       .  T
C2417      C2418   1.411       .  A
C2417      C2422   1.403       .  A
C2417      C2431   1.445       .  S
C2418      C2423   1.491   1_655  S
C2418      C2419   1.403       .  A
C2419      C2420   1.402       .  A
C2419      H2438   1.085   1_545  S
C2420      C2421   1.416       .  A
C2420      C2432   1.444   1_545  S
C2421      C2422   1.407       .  A
C2422      H2437   1.085       .  S
C2423      C2424   1.404       .  A
C2423      C2428   1.410       .  A
C2424      C2425   1.404       .  A
C2424      H2439   1.085       .  S
C2425      C2426   1.417       .  A
C2425      C2429   1.444       .  S
C2426      C2427   1.407       .  A
C2427      C2428   1.401       .  A
C2427      H2440   1.084       .  S
C2428      C2430   1.444       .  S
C2429      N2433   1.157       .  T
C2430      N2434   1.157       .  T
C2431      N2436   1.157   1_655  T
C2432      N2435   1.157       .  T
C2441      C2442   1.409       .  A
C2441      C2446   1.401       .  A
C2441      C2455   1.445       .  S
C2442      C2447   1.489       .  S
C2442      C2443   1.402       .  A
C2443      C2444   1.407       .  A
C2443      H2462   1.085       .  S
C2444      C2445   1.420       .  A
C2444      C2456   1.443       .  S
C2445      C2446   1.408       .  A
C2446      H2461   1.084       .  S
C2447      C2448   1.402       .  A
C2447      C2452   1.411       .  A
C2448      C2449   1.401       .  A
C2448      H2463   1.085       .  S
C2449      C2450   1.415       .  A
C2449      C2453   1.445       .  S
C2450      C2451   1.405       .  A
C2451      C2452   1.404       .  A
C2451      H2464   1.085       .  S
C2452      C2454   1.443       .  S
C2453      N2457   1.157       .  T
C2454      N2458   1.157       .  T
C2455      N2460   1.157       .  T
C2456      N2459   1.157       .  T
C2465      C2466   1.409       .  A
C2465      C2470   1.402   1_565  A
C2465      C2479   1.444       .  S
C2466      C2471   1.487       .  S
C2466      C2467   1.402       .  A
C2467      C2468   1.401       .  A
C2467      H2486   1.085       .  S
C2468      C2469   1.417       .  A
C2468      C2480   1.444       .  S
C2469      C2470   1.408   1_565  A
C2470      H2485   1.084       .  S
C2471      C2472   1.397       .  A
C2471      C2476   1.403       .  A
C2472      C2473   1.404       .  A
C2472      H2487   1.085       .  S
C2473      C2474   1.432       .  A
C2473      C2477   1.444       .  S
C2474      C2475   1.421       .  A
C2475      C2476   1.398       .  A
C2475      H2488   1.080       .  S
C2476      C2478   1.445       .  S
C2477      N2481   1.157       .  T
C2478      N2482   1.157       .  T
C2479      N2484   1.157       .  T
C2480      N2483   1.157       .  T
C2489      C2490   1.406       .  A
C2489      C2494   1.396       .  A
C2489      C2503   1.444       .  S
C2490      C2495   1.479       .  S
C2490      C2491   1.401       .  A
C2491      C2492   1.404       .  A
C2491      H2510   1.085       .  S
C2492      C2493   1.417       .  A
C2492      C2504   1.443       .  S
C2493      C2494   1.407       .  A
C2494      H2509   1.084       .  S
C2495      C2496   1.400       .  A
C2495      C2500   1.409       .  A
C2496      C2497   1.400       .  A
C2496      H2511   1.085       .  S
C2497      C2498   1.415       .  A
C2497      C2501   1.444       .  S
C2498      C2499   1.406       .  A
C2499      C2500   1.400       .  A
C2499      H2512   1.085       .  S
C2500      C2502   1.444       .  S
C2501      N2505   1.157       .  T
C2502      N2506   1.157       .  T
C2503      N2508   1.157       .  T
C2504      N2507   1.157       .  T
C2513      C2514   1.413   1_565  A
C2513      C2518   1.405   1_565  A
C2513      C2527   1.444       .  S
C2514      C2519   1.496       .  S
C2514      C2515   1.404       .  A
C2515      C2516   1.402       .  A
C2515      H2534   1.085       .  S
C2516      C2517   1.417       .  A
C2516      C2528   1.445       .  S
C2517      C2518   1.407       .  A
C2518      H2533   1.084   1_545  S
C2519      C2520   1.404       .  A
C2519      C2524   1.412       .  A
C2520      C2521   1.403       .  A
C2520      H2535   1.085       .  S
C2521      C2522   1.418       .  A
C2521      C2525   1.444       .  S
C2522      C2523   1.407       .  A
C2523      C2524   1.403       .  A
C2523      H2536   1.084       .  S
C2524      C2526   1.444       .  S
C2525      N2529   1.158       .  T
C2526      N2530   1.157       .  T
C2527      N2532   1.157       .  T
C2528      N2531   1.157       .  T
C2537      C2538   1.410       .  A
C2537      C2542   1.404       .  A
C2537      C2551   1.443   1_545  S
C2538      C2543   1.488       .  S
C2538      C2539   1.402       .  A
C2539      C2540   1.400       .  A
C2539      H2558   1.085       .  S
C2540      C2541   1.417       .  A
C2540      C2552   1.444       .  S
C2541      C2542   1.408       .  A
C2542      H2557   1.084   1_545  S
C2543      C2544   1.401       .  A
C2543      C2548   1.409   1_545  A
C2544      C2545   1.401       .  A
C2544      H2559   1.085       .  S
C2545      C2546   1.418       .  A
C2545      C2549   1.444       .  S
C2546      C2547   1.410       .  A
C2547      C2548   1.405   1_545  A
C2547      H2560   1.084   1_545  S
C2548      C2550   1.443       .  S
C2549      N2553   1.157       .  T
C2550      N2554   1.157       .  T
C2551      N2556   1.157       .  T
C2552      N2555   1.157       .  T
C2561      C2562   1.411       .  A
C2561      C2566   1.400       .  A
C2561      C2575   1.444       .  S
C2562      C2567   1.492       .  S
C2562      C2563   1.404       .  A
C2563      C2564   1.407       .  A
C2563      H2582   1.085       .  S
C2564      C2565   1.418       .  A
C2564      C2576   1.444       .  S
C2565      C2566   1.406       .  A
C2566      H2581   1.084       .  S
C2567      C2568   1.401       .  A
C2567      C2572   1.405       .  A
C2568      C2569   1.407       .  A
C2568      H2583   1.085       .  S
C2569      C2570   1.430       .  A
C2569      C2573   1.445       .  S
C2570      C2571   1.420       .  A
C2571      C2572   1.401       .  A
C2571      H2584   1.079       .  S
C2572      C2574   1.445       .  S
C2573      N2577   1.157       .  T
C2574      N2578   1.157       .  T
C2575      N2580   1.157       .  T
C2576      N2579   1.157       .  T
C2585      C2586   1.406       .  A
C2585      C2590   1.403       .  A
C2585      C2599   1.444       .  S
C2586      C2591   1.497       .  S
C2586      C2587   1.399       .  A
C2587      C2588   1.406       .  A
C2587      H2606   1.085       .  S
C2588      C2589   1.432       .  A
C2588      C2600   1.444       .  S
C2589      C2590   1.421       .  A
C2590      H2605   1.078       .  S
C2591      C2592   1.404       .  A
C2591      C2596   1.412       .  A
C2592      C2593   1.404       .  A
C2592      H2607   1.085       .  S
C2593      C2594   1.417       .  A
C2593      C2597   1.444       .  S
C2594      C2595   1.408       .  A
C2595      C2596   1.405       .  A
C2595      H2608   1.084       .  S
C2596      C2598   1.444       .  S
C2597      N2601   1.157       .  T
C2598      N2602   1.157       .  T
C2599      N2604   1.157       .  T
C2600      N2603   1.157       .  T
C2609      C2610   1.410       .  A
C2609      C2614   1.397       .  A
C2609      C2623   1.444       .  S
C2610      C2615   1.489       .  S
C2610      C2611   1.405       .  A
C2611      C2612   1.407       .  A
C2611      H2630   1.085       .  S
C2612      C2613   1.416       .  A
C2612      C2624   1.444       .  S
C2613      C2614   1.405       .  A
C2614      H2629   1.085       .  S
C2615      C2616   1.401       .  A
C2615      C2620   1.411       .  A
C2616      C2617   1.399       .  A
C2616      H2631   1.085       .  S
C2617      C2618   1.417       .  A
C2617      C2621   1.444       .  S
C2618      C2619   1.408       .  A
C2619      C2620   1.406       .  A
C2619      H2632   1.084       .  S
C2620      C2622   1.444       .  S
C2621      N2625   1.157       .  T
C2622      N2626   1.157       .  T
C2623      N2628   1.157       .  T
C2624      N2627   1.157       .  T
C2633      C2634   1.410       .  A
C2633      C2638   1.404       .  A
C2633      C2647   1.444       .  S
C2634      C2639   1.491       .  S
C2634      C2635   1.402       .  A
C2635      C2636   1.404       .  A
C2635      H2654   1.085       .  S
C2636      C2637   1.419       .  A
C2636      C2648   1.444       .  S
C2637      C2638   1.408       .  A
C2638      H2653   1.084       .  S
C2639      C2640   1.397       .  A
C2639      C2644   1.404       .  A
C2640      C2641   1.404       .  A
C2640      H2655   1.086       .  S
C2641      C2642   1.435       .  A
C2641      C2645   1.443       .  S
C2642      C2643   1.421       .  A
C2643      C2644   1.403       .  A
C2643      H2656   1.084       .  S
C2644      C2646   1.444       .  S
C2645      N2649   1.158       .  T
C2646      N2650   1.157       .  T
C2647      N2652   1.157       .  T
C2648      N2651   1.157   1_565  T
C2657      C2658   1.408       .  A
C2657      C2662   1.404       .  A
C2657      C2671   1.443       .  S
C2658      C2663   1.487       .  S
C2658      C2659   1.401       .  A
C2659      C2660   1.402       .  A
C2659      H2678   1.085       .  S
C2660      C2661   1.419       .  A
C2660      C2672   1.444       .  S
C2661      C2662   1.409       .  A
C2662      H2677   1.084       .  S
C2663      C2664   1.402       .  A
C2663      C2668   1.407       .  A
C2664      C2665   1.405       .  A
C2664      H2679   1.085       .  S
C2665      C2666   1.419       .  A
C2665      C2669   1.444       .  S
C2666      C2667   1.408       .  A
C2667      C2668   1.402       .  A
C2667      H2680   1.084       .  S
C2668      C2670   1.444       .  S
C2669      N2673   1.157       .  T
C2670      N2674   1.157       .  T
C2671      N2676   1.157       .  T
C2672      N2675   1.157       .  T
C2681      C2682   1.411       .  A
C2681      C2686   1.403       .  A
C2681      C2695   1.443       .  S
C2682      C2687   1.488   1_565  S
C2682      C2683   1.401       .  A
C2683      C2684   1.402       .  A
C2683      H2702   1.085       .  S
C2684      C2685   1.417       .  A
C2684      C2696   1.443       .  S
C2685      C2686   1.407       .  A
C2686      H2701   1.085       .  S
C2687      C2688   1.398       .  A
C2687      C2692   1.404   1_545  A
C2688      C2689   1.403       .  A
C2688      H2703   1.085       .  S
C2689      C2690   1.432       .  A
C2689      C2693   1.443       .  S
C2690      C2691   1.419       .  A
C2691      C2692   1.402   1_545  A
C2691      H2704   1.082       .  S
C2692      C2694   1.444       .  S
C2693      N2697   1.158       .  T
C2694      N2698   1.157       .  T
C2695      N2700   1.157       .  T
C2696      N2699   1.157       .  T
C2705      C2706   1.408       .  A
C2705      C2710   1.402       .  A
C2705      C2719   1.443       .  S
C2706      C2711   1.489       .  S
C2706      C2707   1.402       .  A
C2707      C2708   1.405       .  A
C2707      H2726   1.085       .  S
C2708      C2709   1.419       .  A
C2708      C2720   1.444       .  S
C2709      C2710   1.408       .  A
C2710      H2725   1.084       .  S
C2711      C2712   1.403       .  A
C2711      C2716   1.410       .  A
C2712      C2713   1.406       .  A
C2712      H2727   1.085       .  S
C2713      C2714   1.417       .  A
C2713      C2717   1.443       .  S
C2714      C2715   1.407       .  A
C2715      C2716   1.400       .  A
C2715      H2728   1.085       .  S
C2716      C2718   1.444       .  S
C2717      N2721   1.157       .  T
C2718      N2722   1.157       .  T
C2719      N2724   1.157       .  T
C2720      N2723   1.158       .  T
C2729      C2730   1.409       .  A
C2729      C2734   1.401       .  A
C2729      C2743   1.444       .  S
C2730      C2735   1.487       .  S
C2730      C2731   1.402       .  A
C2731      C2732   1.404       .  A
C2731      H2750   1.085       .  S
C2732      C2733   1.419       .  A
C2732      C2744   1.444       .  S
C2733      C2734   1.407       .  A
C2734      H2749   1.084       .  S
C2735      C2736   1.401       .  A
C2735      C2740   1.409   1_565  A
C2736      C2737   1.404       .  A
C2736      H2751   1.085       .  S
C2737      C2738   1.419   1_565  A
C2737      C2741   1.444       .  S
C2738      C2739   1.408       .  A
C2739      C2740   1.403       .  A
C2739      H2752   1.084       .  S
C2740      C2742   1.444       .  S
C2741      N2745   1.157       .  T
C2742      N2746   1.157       .  T
C2743      N2748   1.157       .  T
C2744      N2747   1.157       .  T
C2753      C2754   1.413       .  A
C2753      C2758   1.400       .  A
C2753      C2767   1.445       .  S
C2754      C2759   1.495       .  S
C2754      C2755   1.404       .  A
C2755      C2756   1.407       .  A
C2755      H2774   1.085       .  S
C2756      C2757   1.419       .  A
C2756      C2768   1.443       .  S
C2757      C2758   1.405       .  A
C2758      H2773   1.084       .  S
C2759      C2760   1.402       .  A
C2759      C2764   1.407       .  A
C2760      C2761   1.407       .  A
C2760      H2775   1.085       .  S
C2761      C2762   1.430       .  A
C2761      C2765   1.445       .  S
C2762      C2763   1.416       .  A
C2763      C2764   1.398       .  A
C2763      H2776   1.080       .  S
C2764      C2766   1.445       .  S
C2765      N2769   1.157       .  T
C2766      N2770   1.157       .  T
C2767      N2772   1.157       .  T
C2768      N2771   1.157       .  T
C2777      C2778   1.407       .  A
C2777      C2782   1.404       .  A
C2777      C2791   1.443       .  S
C2778      C2783   1.482       .  S
C2778      C2779   1.400       .  A
C2779      C2780   1.397       .  A
C2779      H2798   1.085       .  S
C2780      C2781   1.416       .  A
C2780      C2792   1.444       .  S
C2781      C2782   1.409       .  A
C2782      H2797   1.084       .  S
C2783      C2784   1.402       .  A
C2783      C2788   1.407       .  A
C2784      C2785   1.406       .  A
C2784      H2799   1.085       .  S
C2785      C2786   1.419       .  A
C2785      C2789   1.443       .  S
C2786      C2787   1.406       .  A
C2787      C2788   1.396       .  A
C2787      H2800   1.084       .  S
C2788      C2790   1.445       .  S
C2789      N2793   1.157       .  T
C2790      N2794   1.157       .  T
C2791      N2796   1.157       .  T
C2792      N2795   1.157       .  T
C2801      C2802   1.406       .  A
C2801      C2806   1.405       .  A
C2801      C2815   1.444       .  S
C2802      C2807   1.494       .  S
C2802      C2803   1.394       .  A
C2803      C2804   1.400       .  A
C2803      H2822   1.086       .  S
C2804      C2805   1.433       .  A
C2804      C2816   1.440       .  S
C2805      C2806   1.424       .  A
C2806      H2821   1.080       .  S
C2807      C2808   1.404       .  A
C2807      C2812   1.413       .  A
C2808      C2809   1.405       .  A
C2808      H2823   1.085       .  S
C2809      C2810   1.417       .  A
C2809      C2813   1.444       .  S
C2810      C2811   1.405       .  A
C2811      C2812   1.401       .  A
C2811      H2824   1.085       .  S
C2812      C2814   1.444       .  S
C2813      N2817   1.157       .  T
C2814      N2818   1.157       .  T
C2815      N2820   1.157       .  T
C2816      N2819   1.157       .  T
C2825      C2826   1.409       .  A
C2825      C2830   1.401       .  A
C2825      C2839   1.444       .  S
C2826      C2831   1.489       .  S
C2826      C2827   1.402       .  A
C2827      C2828   1.406       .  A
C2827      H2846   1.085       .  S
C2828      C2829   1.419       .  A
C2828      C2840   1.444       .  S
C2829      C2830   1.407       .  A
C2830      H2845   1.084       .  S
C2831      C2832   1.404       .  A
C2831      C2836   1.408       .  A
C2832      C2833   1.407       .  A
C2832      H2847   1.085       .  S
C2833      C2834   1.417       .  A
C2833      C2837   1.443       .  S
C2834      C2835   1.408       .  A
C2835      C2836   1.398       .  A
C2835      H2848   1.084       .  S
C2836      C2838   1.445       .  S
C2837      N2841   1.157       .  T
C2838      N2842   1.157       .  T
C2839      N2844   1.157       .  T
C2840      N2843   1.157       .  T
C2849      C2850   1.410       .  A
C2849      C2854   1.402       .  A
C2849      C2863   1.444       .  S
C2850      C2855   1.487       .  S
C2850      C2851   1.401       .  A
C2851      C2852   1.402       .  A
C2851      H2870   1.085       .  S
C2852      C2853   1.415       .  A
C2852      C2864   1.444       .  S
C2853      C2854   1.406       .  A
C2854      H2869   1.085       .  S
C2855      C2856   1.401       .  A
C2855      C2860   1.409       .  A
C2856      C2857   1.404       .  A
C2856      H2871   1.085       .  S
C2857      C2858   1.418       .  A
C2857      C2861   1.443       .  S
C2858      C2859   1.408       .  A
C2859      C2860   1.402       .  A
C2859      H2872   1.084       .  S
C2860      C2862   1.445       .  S
C2861      N2865   1.157       .  T
C2862      N2866   1.157       .  T
C2863      N2868   1.157       .  T
C2864      N2867   1.157       .  T
C2873      C2874   1.411       .  A
C2873      C2878   1.402       .  A
C2873      C2887   1.444       .  S
C2874      C2879   1.491       .  S
C2874      C2875   1.403       .  A
C2875      C2876   1.402       .  A
C2875      H2894   1.085       .  S
C2876      C2877   1.417       .  A
C2876      C2888   1.444       .  S
C2877      C2878   1.406       .  A
C2878      H2893   1.084       .  S
C2879      C2880   1.395       .  A
C2879      C2884   1.405       .  A
C2880      C2881   1.402       .  A
C2880      H2895   1.085       .  S
C2881      C2882   1.432       .  A
C2881      C2885   1.441       .  S
C2882      C2883   1.421       .  A
C2883      C2884   1.404       .  A
C2883      H2896   1.079       .  S
C2884      C2886   1.445       .  S
C2885      N2889   1.157       .  T
C2886      N2890   1.157       .  T
C2887      N2892   1.157       .  T
C2888      N2891   1.157       .  T
C2897      C2898   1.411       .  A
C2897      C2902   1.400       .  A
C2897      C2911   1.444       .  S
C2898      C2903   1.491       .  S
C2898      C2899   1.404       .  A
C2899      C2900   1.404       .  A
C2899      H2918   1.085       .  S
C2900      C2901   1.417       .  A
C2900      C2912   1.444       .  S
C2901      C2902   1.406       .  A
C2902      H2917   1.085       .  S
C2903      C2904   1.403       .  A
C2903      C2908   1.411       .  A
C2904      C2905   1.403       .  A
C2904      H2919   1.085       .  S
C2905      C2906   1.418       .  A
C2905      C2909   1.444       .  S
C2906      C2907   1.407       .  A
C2907      C2908   1.402       .  A
C2907      H2920   1.084       .  S
C2908      C2910   1.444       .  S
C2909      N2913   1.157       .  T
C2910      N2914   1.157       .  T
C2911      N2916   1.157       .  T
C2912      N2915   1.157       .  T
C2921      C2922   1.411       .  A
C2921      C2926   1.400       .  A
C2921      C2935   1.445       .  S
C2922      C2927   1.490       .  S
C2922      C2923   1.404   1_545  A
C2923      C2924   1.404       .  A
C2923      H2942   1.085       .  S
C2924      C2925   1.417   1_565  A
C2924      C2936   1.443       .  S
C2925      C2926   1.407       .  A
C2926      H2941   1.084       .  S
C2927      C2928   1.403       .  A
C2927      C2932   1.410       .  A
C2928      C2929   1.401       .  A
C2928      H2943   1.085       .  S
C2929      C2930   1.417       .  A
C2929      C2933   1.444       .  S
C2930      C2931   1.407       .  A
C2931      C2932   1.401       .  A
C2931      H2944   1.084   1_545  S
C2932      C2934   1.443   1_545  S
C2933      N2937   1.157       .  T
C2934      N2938   1.157       .  T
C2935      N2940   1.157       .  T
C2936      N2939   1.157       .  T
C2945      C2946   1.407       .  A
C2945      C2950   1.402       .  A
C2945      C2959   1.444   1_565  S
C2946      C2951   1.488   1_565  S
C2946      C2947   1.403       .  A
C2947      C2948   1.406       .  A
C2947      H2966   1.085       .  S
C2948      C2949   1.418       .  A
C2948      C2960   1.443       .  S
C2949      C2950   1.409       .  A
C2950      H2965   1.084       .  S
C2951      C2952   1.400       .  A
C2951      C2956   1.403       .  A
C2952      C2953   1.408       .  A
C2952      H2967   1.085   1_545  S
C2953      C2954   1.431       .  A
C2953      C2957   1.442       .  S
C2954      C2955   1.419       .  A
C2955      C2956   1.398       .  A
C2955      H2968   1.082       .  S
C2956      C2958   1.444       .  S
C2957      N2961   1.158       .  T
C2958      N2962   1.157       .  T
C2959      N2964   1.157       .  T
C2960      N2963   1.157       .  T
C2969      C2970   1.411       .  A
C2969      C2974   1.403       .  A
C2969      C2983   1.443       .  S
C2970      C2975   1.493       .  S
C2970      C2971   1.404       .  A
C2971      C2972   1.406       .  A
C2971      H2990   1.085       .  S
C2972      C2973   1.416       .  A
C2972      C2984   1.444       .  S
C2973      C2974   1.406       .  A
C2974      H2989   1.085       .  S
C2975      C2976   1.404       .  A
C2975      C2980   1.411       .  A
C2976      C2977   1.406       .  A
C2976      H2991   1.085       .  S
C2977      C2978   1.417       .  A
C2977      C2981   1.443       .  S
C2978      C2979   1.407       .  A
C2979      C2980   1.401       .  A
C2979      H2992   1.085       .  S
C2980      C2982   1.444       .  S
C2981      N2985   1.157       .  T
C2982      N2986   1.157       .  T
C2983      N2988   1.157       .  T
C2984      N2987   1.157       .  T
C2993      C2994   1.409       .  A
C2993      C2998   1.400       .  A
C2993      C3007   1.444       .  S
C2994      C2999   1.486       .  S
C2994      C2995   1.402       .  A
C2995      C2996   1.405       .  A
C2995      H3014   1.085       .  S
C2996      C2997   1.418       .  A
C2996      C3008   1.444       .  S
C2997      C2998   1.407       .  A
C2998      H3013   1.084       .  S
C2999      C3000   1.401       .  A
C2999      C3004   1.408       .  A
C3000      C3001   1.404       .  A
C3000      H3015   1.085       .  S
C3001      C3002   1.419       .  A
C3001      C3005   1.444       .  S
C3002      C3003   1.407       .  A
C3003      C3004   1.401       .  A
C3003      H3016   1.084       .  S
C3004      C3006   1.444       .  S
C3005      N3009   1.157       .  T
C3006      N3010   1.157       .  T
C3007      N3012   1.157       .  T
C3008      N3011   1.157       .  T
C3017      C3018   1.412       .  A
C3017      C3022   1.402       .  A
C3017      C3031   1.445       .  S
C3018      C3023   1.490       .  S
C3018      C3019   1.402       .  A
C3019      C3020   1.403       .  A
C3019      H3038   1.085       .  S
C3020      C3021   1.417       .  A
C3020      C3032   1.444       .  S
C3021      C3022   1.406       .  A
C3022      H3037   1.085       .  S
C3023      C3024   1.402       .  A
C3023      C3028   1.411       .  A
C3024      C3025   1.402       .  A
C3024      H3039   1.085       .  S
C3025      C3026   1.417       .  A
C3025      C3029   1.444   1_565  S
C3026      C3027   1.407       .  A
C3027      C3028   1.402       .  A
C3027      H3040   1.084       .  S
C3028      C3030   1.444       .  S
C3029      N3033   1.157       .  T
C3030      N3034   1.157       .  T
C3031      N3036   1.157   1_565  T
C3032      N3035   1.157       .  T
C3041      C3042   1.405       .  A
C3041      C3046   1.401       .  A
C3041      C3055   1.445       .  S
C3042      C3047   1.492       .  S
C3042      C3043   1.398       .  A
C3043      C3044   1.404       .  A
C3043      H3062   1.085       .  S
C3044      C3045   1.434       .  A
C3044      C3056   1.445       .  S
C3045      C3046   1.420       .  A
C3046      H3061   1.078       .  S
C3047      C3048   1.402       .  A
C3047      C3052   1.412       .  A
C3048      C3049   1.401       .  A
C3048      H3063   1.085       .  S
C3049      C3050   1.416   1_565  A
C3049      C3053   1.444       .  S
C3050      C3051   1.407       .  A
C3051      C3052   1.405   1_545  A
C3051      H3064   1.085       .  S
C3052      C3054   1.444       .  S
C3053      N3057   1.157       .  T
C3054      N3058   1.157   1_565  T
C3055      N3060   1.157       .  T
C3056      N3059   1.157       .  T
C3065      C3066   1.404       .  A
C3065      C3070   1.402       .  A
C3065      C3079   1.443       .  S
C3066      C3071   1.491       .  S
C3066      C3067   1.394       .  A
C3067      C3068   1.403       .  A
C3067      H3086   1.087       .  S
C3068      C3069   1.439       .  A
C3068      C3080   1.441       .  S
C3069      C3070   1.423       .  A
C3070      H3085   1.084       .  S
C3071      C3072   1.402       .  A
C3071      C3076   1.404       .  A
C3072      C3073   1.408       .  A
C3072      H3087   1.085       .  S
C3073      C3074   1.432       .  A
C3073      C3077   1.445       .  S
C3074      C3075   1.423       .  A
C3075      C3076   1.397       .  A
C3075      H3088   1.078       .  S
C3076      C3078   1.446       .  S
C3077      N3081   1.157       .  T
C3078      N3082   1.157       .  T
C3079      N3084   1.157       .  T
C3080      N3083   1.158       .  T
C3089      C3090   1.406       .  A
C3089      C3094   1.400       .  A
C3089      C3103   1.445       .  S
C3090      C3095   1.499       .  S
C3090      C3091   1.402       .  A
C3091      C3092   1.408       .  A
C3091      H3110   1.085       .  S
C3092      C3093   1.432       .  A
C3092      C3104   1.444       .  S
C3093      C3094   1.421       .  A
C3094      H3109   1.080       .  S
C3095      C3096   1.406       .  A
C3095      C3100   1.413       .  A
C3096      C3097   1.404       .  A
C3096      H3111   1.085       .  S
C3097      C3098   1.416       .  A
C3097      C3101   1.444       .  S
C3098      C3099   1.407       .  A
C3099      C3100   1.404       .  A
C3099      H3112   1.084       .  S
C3100      C3102   1.443       .  S
C3101      N3105   1.157       .  T
C3102      N3106   1.157       .  T
C3103      N3108   1.157       .  T
C3104      N3107   1.158       .  T
C3113      C3114   1.411       .  A
C3113      C3118   1.384       .  A
C3113      C3127   1.448       .  S
C3114      C3119   1.510       .  S
C3114      C3115   1.412       .  A
C3115      C3116   1.418       .  A
C3115      H3134   1.083       .  S
C3116      C3117   1.430       .  A
C3116      C3128   1.442       .  S
C3117      C3118   1.420       .  A
C3118      H3133   1.085       .  S
C3119      C3120   1.402       .  A
C3119      C3124   1.413       .  A
C3120      C3121   1.394       .  A
C3120      H3135   1.085       .  S
C3121      C3122   1.431       .  A
C3121      C3125   1.446       .  S
C3122      C3123   1.420       .  A
C3123      C3124   1.409       .  A
C3123      H3136   1.077       .  S
C3124      C3126   1.443       .  S
C3125      N3129   1.157       .  T
C3126      N3130   1.157       .  T
C3127      N3132   1.157       .  T
C3128      N3131   1.158       .  T
C3137      C3138   1.407       .  A
C3137      C3142   1.402       .  A
C3137      C3151   1.444       .  S
C3138      C3143   1.492       .  S
C3138      C3139   1.398       .  A
C3139      C3140   1.402       .  A
C3139      H3158   1.085       .  S
C3140      C3141   1.429       .  A
C3140      C3152   1.443       .  S
C3141      C3142   1.415       .  A
C3142      H3157   1.081       .  S
C3143      C3144   1.404       .  A
C3143      C3148   1.411       .  A
C3144      C3145   1.403       .  A
C3144      H3159   1.085       .  S
C3145      C3146   1.417       .  A
C3145      C3149   1.444       .  S
C3146      C3147   1.406       .  A
C3147      C3148   1.402       .  A
C3147      H3160   1.084       .  S
C3148      C3150   1.444       .  S
C3149      N3153   1.157       .  T
C3150      N3154   1.157       .  T
C3151      N3156   1.157       .  T
C3152      N3155   1.157       .  T
C3161      C3162   1.412       .  A
C3161      C3166   1.414       .  A
C3161      C3175   1.443       .  S
C3162      C3167   1.506       .  S
C3162      C3163   1.395       .  A
C3163      C3164   1.395       .  A
C3163      H3182   1.086       .  S
C3164      C3165   1.433       .  A
C3164      C3176   1.441       .  S
C3165      C3166   1.423       .  A
C3166      H3181   1.080       .  S
C3167      C3168   1.401       .  A
C3167      C3172   1.411       .  A
C3168      C3169   1.411       .  A
C3168      H3183   1.084       .  S
C3169      C3170   1.435       .  A
C3169      C3173   1.443       .  S
C3170      C3171   1.420       .  A
C3171      C3172   1.398       .  A
C3171      H3184   1.075       .  S
C3172      C3174   1.448       .  S
C3173      N3177   1.157       .  T
C3174      N3178   1.157       .  T
C3175      N3180   1.157       .  T
C3176      N3179   1.157       .  T
C3185      C3186   1.401       .  A
C3185      C3190   1.390       .  A
C3185      C3199   1.446       .  S
C3186      C3191   1.481       .  S
C3186      C3187   1.402       .  A
C3187      C3188   1.409       .  A
C3187      H3206   1.084       .  S
C3188      C3189   1.420       .  A
C3188      C3200   1.440       .  S
C3189      C3190   1.423       .  A
C3190      H3205   1.080       .  S
C3191      C3192   1.395       .  A
C3191      C3196   1.403       .  A
C3192      C3193   1.406       .  A
C3192      H3207   1.085       .  S
C3193      C3194   1.437       .  A
C3193      C3197   1.442       .  S
C3194      C3195   1.420       .  A
C3195      C3196   1.392       .  A
C3195      H3208   1.084       .  S
C3196      C3198   1.446       .  S
C3197      N3201   1.158       .  T
C3198      N3202   1.157       .  T
C3199      N3204   1.157       .  T
C3200      N3203   1.158       .  T
C3209      C3210   1.406       .  A
C3209      C3214   1.401       .  A
C3209      C3223   1.444       .  S
C3210      C3215   1.490       .  S
C3210      C3211   1.398       .  A
C3211      C3212   1.404       .  A
C3211      H3230   1.085       .  S
C3212      C3213   1.432       .  A
C3212      C3224   1.445       .  S
C3213      C3214   1.418       .  A
C3214      H3229   1.079       .  S
C3215      C3216   1.402       .  A
C3215      C3220   1.411       .  A
C3216      C3217   1.402       .  A
C3216      H3231   1.085       .  S
C3217      C3218   1.416       .  A
C3217      C3221   1.443       .  S
C3218      C3219   1.409       .  A
C3219      C3220   1.404       .  A
C3219      H3232   1.084       .  S
C3220      C3222   1.444       .  S
C3221      N3225   1.157       .  T
C3222      N3226   1.157       .  T
C3223      N3228   1.157       .  T
C3224      N3227   1.157       .  T
C3233      C3234   1.404       .  A
C3233      C3238   1.408       .  A
C3233      C3247   1.442       .  S
C3234      C3239   1.490       .  S
C3234      C3235   1.394       .  A
C3235      C3236   1.396       .  A
C3235      H3254   1.085       .  S
C3236      C3237   1.434       .  A
C3236      C3248   1.444       .  S
C3237      C3238   1.423       .  A
C3238      H3253   1.079       .  S
C3239      C3240   1.398       .  A
C3239      C3244   1.403       .  A
C3240      C3241   1.408       .  A
C3240      H3255   1.085       .  S
C3241      C3242   1.437       .  A
C3241      C3245   1.446       .  S
C3242      C3243   1.421       .  A
C3243      C3244   1.399       .  A
C3243      H3256   1.072       .  S
C3244      C3246   1.446       .  S
C3245      N3249   1.157       .  T
C3246      N3250   1.157       .  T
C3247      N3252   1.157       .  T
C3248      N3251   1.157       .  T
C3257      C3258   1.407       .  A
C3257      C3262   1.402       .  A
C3257      C3271   1.445       .  S
C3258      C3263   1.497       .  S
C3258      C3259   1.401       .  A
C3259      C3260   1.404       .  A
C3259      H3278   1.085       .  S
C3260      C3261   1.431       .  A
C3260      C3272   1.445       .  S
C3261      C3262   1.422       .  A
C3262      H3277   1.079       .  S
C3263      C3264   1.405       .  A
C3263      C3268   1.413       .  A
C3264      C3265   1.403       .  A
C3264      H3279   1.085       .  S
C3265      C3266   1.417       .  A
C3265      C3269   1.444       .  S
C3266      C3267   1.407       .  A
C3267      C3268   1.404       .  A
C3267      H3280   1.084   1_565  S
C3268      C3270   1.444       .  S
C3269      N3273   1.157       .  T
C3270      N3274   1.157       .  T
C3271      N3276   1.157       .  T
C3272      N3275   1.157       .  T
C3281      C3282   1.410       .  A
C3281      C3286   1.413       .  A
C3281      C3295   1.442       .  S
C3282      C3287   1.498       .  S
C3282      C3283   1.394       .  A
C3283      C3284   1.390       .  A
C3283      H3302   1.087       .  S
C3284      C3285   1.432       .  A
C3284      C3296   1.442       .  S
C3285      C3286   1.421       .  A
C3286      H3301   1.081       .  S
C3287      C3288   1.400       .  A
C3287      C3292   1.410       .  A
C3288      C3289   1.410       .  A
C3288      H3303   1.084       .  S
C3289      C3290   1.433       .  A
C3289      C3293   1.443       .  S
C3290      C3291   1.416       .  A
C3291      C3292   1.396       .  A
C3291      H3304   1.080       .  S
C3292      C3294   1.447       .  S
C3293      N3297   1.157       .  T
C3294      N3298   1.157       .  T
C3295      N3300   1.157       .  T
C3296      N3299   1.157       .  T
C3305      C3306   1.403       .  A
C3305      C3310   1.403       .  A
C3305      C3319   1.443       .  S
C3306      C3311   1.493       .  S
C3306      C3307   1.393       .  A
C3307      C3308   1.399       .  A
C3307      H3326   1.083       .  S
C3308      C3309   1.439       .  A
C3308      C3320   1.441       .  S
C3309      C3310   1.425       .  A
C3310      H3325   1.084       .  S
C3311      C3312   1.401       .  A
C3311      C3316   1.406       .  A
C3312      C3313   1.407       .  A
C3312      H3327   1.085       .  S
C3313      C3314   1.433       .  A
C3313      C3317   1.444       .  S
C3314      C3315   1.420       .  A
C3315      C3316   1.398       .  A
C3315      H3328   1.078       .  S
C3316      C3318   1.445       .  S
C3317      N3321   1.158       .  T
C3318      N3322   1.157       .  T
C3319      N3324   1.157       .  T
C3320      N3323   1.158       .  T
C3329      C3330   1.405       .  A
C3329      C3334   1.404       .  A
C3329      C3343   1.445       .  S
C3330      C3335   1.496       .  S
C3330      C3331   1.397       .  A
C3331      C3332   1.404       .  A
C3331      H3350   1.085       .  S
C3332      C3333   1.434       .  A
C3332      C3344   1.443       .  S
C3333      C3334   1.423       .  A
C3334      H3349   1.080       .  S
C3335      C3336   1.405       .  A
C3335      C3340   1.412       .  A
C3336      C3337   1.406   1_565  A
C3336      H3351   1.085       .  S
C3337      C3338   1.416   1_545  A
C3337      C3341   1.444       .  S
C3338      C3339   1.406       .  A
C3339      C3340   1.403       .  A
C3339      H3352   1.085       .  S
C3340      C3342   1.444       .  S
C3341      N3345   1.157       .  T
C3342      N3346   1.157       .  T
C3343      N3348   1.157       .  T
C3344      N3347   1.158       .  T
C3353      C3354   1.410       .  A
C3353      C3358   1.400       .  A
C3353      C3367   1.444       .  S
C3354      C3359   1.494       .  S
C3354      C3355   1.399       .  A
C3355      C3356   1.404       .  A
C3355      H3374   1.085       .  S
C3356      C3357   1.433       .  A
C3356      C3368   1.444       .  S
C3357      C3358   1.414       .  A
C3358      H3373   1.080       .  S
C3359      C3360   1.397       .  A
C3359      C3364   1.401       .  A
C3360      C3361   1.411       .  A
C3360      H3375   1.086       .  S
C3361      C3362   1.440       .  A
C3361      C3365   1.437       .  S
C3362      C3363   1.430       .  A
C3363      C3364   1.393       .  A
C3363      H3376   1.079       .  S
C3364      C3366   1.446       .  S
C3365      N3369   1.158       .  T
C3366      N3370   1.157       .  T
C3367      N3372   1.157       .  T
C3368      N3371   1.158       .  T
C3377      C3378   1.403       .  A
C3377      C3382   1.402       .  A
C3377      C3391   1.443       .  S
C3378      C3383   1.490       .  S
C3378      C3379   1.394       .  A
C3379      C3380   1.401       .  A
C3379      H3398   1.087       .  S
C3380      C3381   1.436       .  A
C3380      C3392   1.438       .  S
C3381      C3382   1.423       .  A
C3382      H3397   1.084       .  S
C3383      C3384   1.397       .  A
C3383      C3388   1.408       .  A
C3384      C3385   1.400       .  A
C3384      H3399   1.085       .  S
C3385      C3386   1.433       .  A
C3385      C3389   1.445       .  S
C3386      C3387   1.418       .  A
C3387      C3388   1.401       .  A
C3387      H3400   1.078       .  S
C3388      C3390   1.445       .  S
C3389      N3393   1.158       .  T
C3390      N3394   1.157       .  T
C3391      N3396   1.157       .  T
C3392      N3395   1.156       .  T
C3401      C3402   1.411       .  A
C3401      C3406   1.405       .  A
C3401      C3415   1.444       .  S
C3402      C3407   1.494       .  S
C3402      C3403   1.403       .  A
C3403      C3404   1.404       .  A
C3403      H3422   1.085       .  S
C3404      C3405   1.419       .  A
C3404      C3416   1.444       .  S
C3405      C3406   1.409       .  A
C3406      H3421   1.084       .  S
C3407      C3408   1.397       .  A
C3407      C3412   1.408       .  A
C3408      C3409   1.401       .  A
C3408      H3423   1.086       .  S
C3409      C3410   1.435       .  A
C3409      C3413   1.445       .  S
C3410      C3411   1.416       .  A
C3411      C3412   1.405       .  A
C3411      H3424   1.083       .  S
C3412      C3414   1.443       .  S
C3413      N3417   1.158       .  T
C3414      N3418   1.157       .  T
C3415      N3420   1.157       .  T
C3416      N3419   1.157       .  T
C3425      C3426   1.404       .  A
C3425      C3430   1.404       .  A
C3425      C3439   1.443       .  S
C3426      C3431   1.491       .  S
C3426      C3427   1.397       .  A
C3427      C3428   1.401       .  A
C3427      H3446   1.086       .  S
C3428      C3429   1.438       .  A
C3428      C3440   1.446       .  S
C3429      C3430   1.421       .  A
C3430      H3445   1.078       .  S
C3431      C3432   1.401       .  A
C3431      C3436   1.404       .  A
C3432      C3433   1.405       .  A
C3432      H3447   1.085       .  S
C3433      C3434   1.429       .  A
C3433      C3437   1.443       .  S
C3434      C3435   1.423       .  A
C3435      C3436   1.399       .  A
C3435      H3448   1.080       .  S
C3436      C3438   1.445       .  S
C3437      N3441   1.157       .  T
C3438      N3442   1.157       .  T
C3439      N3444   1.157       .  T
C3440      N3443   1.158       .  T
C3449      C3450   1.410       .  A
C3449      C3454   1.392       .  A
C3449      C3463   1.446       .  S
C3450      C3455   1.512       .  S
C3450      C3451   1.411       .  A
C3451      C3452   1.414       .  A
C3451      H3470   1.081       .  S
C3452      C3453   1.425       .  A
C3452      C3464   1.445       .  S
C3453      C3454   1.416       .  A
C3454      H3469   1.080       .  S
C3455      C3456   1.405       .  A
C3455      C3460   1.414       .  A
C3456      C3457   1.392       .  A
C3456      H3471   1.083       .  S
C3457      C3458   1.428       .  A
C3457      C3461   1.444       .  S
C3458      C3459   1.423       .  A
C3459      C3460   1.412       .  A
C3459      H3472   1.083       .  S
C3460      C3462   1.441       .  S
C3461      N3465   1.158       .  T
C3462      N3466   1.157       .  T
C3463      N3468   1.157       .  T
C3464      N3467   1.157       .  T
C3473      C3474   1.400       .  A
C3473      C3478   1.397       .  A
C3473      C3487   1.444       .  S
C3474      C3479   1.481       .  S
C3474      C3475   1.394       .  A
C3475      C3476   1.403       .  A
C3475      H3494   1.086       .  S
C3476      C3477   1.438       .  A
C3476      C3488   1.439       .  S
C3477      C3478   1.424       .  A
C3478      H3493   1.085       .  S
C3479      C3480   1.393       .  A
C3479      C3484   1.402       .  A
C3480      C3481   1.395       .  A
C3480      H3495   1.086       .  S
C3481      C3482   1.435       .  A
C3481      C3485   1.446       .  S
C3482      C3483   1.421       .  A
C3483      C3484   1.403       .  A
C3483      H3496   1.078       .  S
C3484      C3486   1.443       .  S
C3485      N3489   1.158       .  T
C3486      N3490   1.157       .  T
C3487      N3492   1.157       .  T
C3488      N3491   1.158       .  T
C3497      C3498   1.407       .  A
C3497      C3502   1.400       .  A
C3497      C3511   1.445       .  S
C3498      C3503   1.499       .  S
C3498      C3499   1.402       .  A
C3499      C3500   1.409       .  A
C3499      H3518   1.085       .  S
C3500      C3501   1.432       .  A
C3500      C3512   1.444       .  S
C3501      C3502   1.420       .  A
C3502      H3517   1.079       .  S
C3503      C3504   1.404       .  A
C3503      C3508   1.413       .  A
C3504      C3505   1.402       .  A
C3504      H3519   1.085       .  S
C3505      C3506   1.418       .  A
C3505      C3509   1.443       .  S
C3506      C3507   1.410       .  A
C3507      C3508   1.408       .  A
C3507      H3520   1.084       .  S
C3508      C3510   1.443       .  S
C3509      N3513   1.157       .  T
C3510      N3514   1.157       .  T
C3511      N3516   1.157       .  T
C3512      N3515   1.157       .  T
