geometry optimzed in LAMMPS
_audit_creation_date              2020-11-30 
_audit_creation_method            'lammps2cif' 
_symmetry_space_group_name_H-M    'P1' 
_symmetry_Int_Tables_number       1 
_symmetry_cell_setting            triclinic 
loop_ 
_symmetry_equiv_pos_as_xyz 
  x,y,z 
_cell_length_a                    37.79161425 
_cell_length_b                    37.503203766292735 
_cell_length_c                    37.802586905039284 
_cell_angle_alpha                 90.83109870190728 
_cell_angle_beta                  89.18863310454812 
_cell_angle_gamma                 89.85455985888197 
loop_ 
_atom_site_label 
_atom_site_type_symbol 
_atom_site_fract_x 
_atom_site_fract_y 
_atom_site_fract_z 
_atom_site_charge 
In1        In  0.67309705  0.09204740  0.66356477     1.36900
C2          C  0.62564837  0.11500724  0.61937584     0.77100
O3          O  0.66419818  0.03381363  0.64803416    -0.61300
O4          O  0.69307452  0.04119100  0.69441318    -0.52200
C5          C  0.72746729  0.12164565  0.62734322     0.69800
O6          O  0.70172949  0.10637794  0.61319263    -0.47100
C7          C  0.63519589  0.12644787  0.71532309     0.74500
O8          O  0.63526272  0.08275774  0.62057857    -0.59000
O9          O  0.66742801  0.13333492  0.70902923    -0.49000
O10         O  0.64134678  0.13594956  0.64007398    -0.55400
C11         C  0.67945957  0.01873848  0.67314774     0.84700
O12         O  0.72799863  0.11868717  0.66071593    -0.57300
O13         O  0.62418319  0.09944109  0.69862080    -0.60600
In14       In  0.66648198  0.90532865  0.67957808     1.36900
C15         C  0.60325646  0.90776453  0.65473148     0.77100
O16         O  0.64468725  0.85277860  0.70148786    -0.61300
O17         O  0.65003947  0.89598252  0.73721400    -0.52200
C18         C  0.71323040  0.86425313  0.64220484     0.69800
O19         O  0.68241482  0.87105197  0.63229133    -0.47100
C20         C  0.67891524  0.97832178  0.67618050     0.74500
O21         O  0.62966528  0.89870910  0.63583537    -0.59000
O22         O  0.69043809  0.95968692  0.70143150    -0.49000
O23         O  0.60985948  0.91727642  0.68593452    -0.55400
C24         C  0.63749912  0.86507548  0.73181969     0.84700
O25         O  0.72127215  0.87952958  0.67127529    -0.57300
O26         O  0.66444362  0.95937173  0.65278814    -0.60600
In27       In  0.29242243  0.09362598  0.67430171     1.36900
C28         C  0.35368521  0.10157957  0.64105266     0.77100
O29         O  0.31927526  0.14274464  0.69840755    -0.61300
O30         O  0.30717869  0.10134526  0.73337093    -0.52200
C31         C  0.24088929  0.12646397  0.63706439     0.69800
O32         O  0.25941511  0.10104283  0.62506229    -0.47100
C33         C  0.27790710  0.02141003  0.67878533     0.74500
O34         O  0.32673200  0.11928870  0.63328715    -0.59000
O35         O  0.26709322  0.04367159  0.70224886    -0.49000
O36         O  0.34804087  0.07741268  0.66323036    -0.55400
C37         C  0.32288183  0.13086451  0.72900004     0.84700
O38         O  0.24590170  0.13299898  0.66957455    -0.57300
O39         O  0.29425385  0.03632325  0.65373068    -0.60600
In40       In  0.28478838  0.90785102  0.67883492     1.36900
C41         C  0.34394647  0.91836626  0.64715320     0.77100
O42         O  0.28291203  0.96235358  0.65285758    -0.61300
O43         O  0.26713455  0.96214185  0.70640460    -0.52200
C44         C  0.23848578  0.86857904  0.64001727     0.69800
O45         O  0.27108429  0.86272567  0.64079583    -0.47100
C46         C  0.31589706  0.86757869  0.72991557     0.74500
O47         O  0.31825452  0.90479312  0.63089722    -0.59000
O48         O  0.29100070  0.88959223  0.73704275    -0.49000
O49         O  0.33871636  0.92732440  0.67902052    -0.55400
C50         C  0.27468867  0.98107553  0.67966240     0.84700
O51         O  0.22843458  0.89335807  0.66109015    -0.57300
O52         O  0.32183942  0.86407203  0.69738857    -0.60600
C53         C  0.47899699  0.93862253  0.57783001    -0.02900
C54         C  0.48781578  0.10040506  0.57230711    -0.02900
In55       In  0.07440718  0.69215917  0.67647449     1.36900
C56         C  0.06644528  0.66291079  0.61504303     0.77100
O57         O  0.01950057  0.66730631  0.68019391    -0.61300
O58         O  0.02069559  0.72229880  0.69092440    -0.52200
C59         C  0.11046684  0.65570195  0.72593767     0.69800
O60         O  0.10816326  0.64600657  0.69418091    -0.47100
C61         C  0.12168522  0.73817028  0.64702585     0.74500
O62         O  0.07488663  0.64513993  0.64176246    -0.59000
O63         O  0.09827465  0.74828822  0.66955904    -0.49000
O64         O  0.06039381  0.69566656  0.62049089    -0.55400
C65         C  0.00134248  0.69505188  0.68592824     0.84700
O66         O  0.09382221  0.68438084  0.73325515    -0.57300
O67         O  0.12279820  0.70503736  0.64251609    -0.60600
In68       In  0.88912103  0.68631225  0.66917581     1.36900
C69         C  0.84679296  0.73505884  0.63517529     0.77100
O70         O  0.89340256  0.67336064  0.61243031    -0.61300
O71         O  0.86971085  0.63496107  0.64609149    -0.52200
C72         C  0.96119729  0.69399029  0.68315641     0.69800
O73         O  0.93892591  0.71831489  0.69135212    -0.47100
C74         C  0.85219475  0.64891437  0.71818805     0.74500
O75         O  0.87556170  0.72270906  0.62287268    -0.59000
O76         O  0.87757219  0.63628746  0.70000044    -0.49000
O77         O  0.84149995  0.72635581  0.66711505    -0.55400
C78         C  0.87605638  0.64490881  0.61517740     0.84700
O79         O  0.94635204  0.66712795  0.66997562    -0.57300
O80         O  0.84769394  0.68216972  0.71428184    -0.60600
In81       In  0.06658663  0.68569168  0.29590336     1.36900
C82         C  0.06162981  0.65189511  0.35448986     0.77100
O83         O  0.11527722  0.70038309  0.32860277    -0.61300
O84         O  0.09068349  0.74287273  0.30304885    -0.52200
C85         C  0.10564600  0.65010710  0.24576625     0.69800
O86         O  0.10531333  0.64278246  0.27792275    -0.47100
C87         C  0.99200116  0.68857742  0.28718105     0.74500
O88         O  0.06635355  0.63578930  0.32522342    -0.59000
O89         O  0.01228120  0.71511006  0.28180151    -0.49000
O90         O  0.05687173  0.68521023  0.35318257    -0.55400
C91         C  0.11504891  0.73333904  0.32391001     0.84700
O92         O  0.08520341  0.67570729  0.23820467    -0.57300
O93         O  0.00987459  0.66130624  0.29455101    -0.60600
In94       In  0.87599325  0.68644013  0.29348008     1.36900
C95         C  0.82851459  0.73762833  0.31592239     0.77100
O96         O  0.85483704  0.67791230  0.23691876    -0.61300
O97         O  0.85313193  0.63442700  0.27172024    -0.52200
C98         C  0.95102940  0.68837748  0.28712186     0.69800
O99         O  0.93089497  0.71295827  0.27616906    -0.47100
C100        C  0.86384776  0.66718065  0.35866118     0.74500
O101        O  0.85865869  0.74530848  0.30281018    -0.59000
O102        O  0.85645704  0.64716196  0.33273396    -0.49000
O103        O  0.82072410  0.70544171  0.31147696    -0.55400
C104        C  0.84477387  0.64602516  0.24189778     0.84700
O105        O  0.93295105  0.66291468  0.29944859    -0.57300
O106        O  0.88182941  0.69440707  0.35121422    -0.60600
C107        C  0.86821106  0.59142925  0.48271953    -0.02900
C108        C  0.02883817  0.58727734  0.48800407    -0.02900
In109      In  0.16962071  0.80596421  0.39063787     1.36900
C110        C  0.10650641  0.83090213  0.39780657     0.77100
O111        O  0.13782495  0.79137570  0.34102156    -0.61300
O112        O  0.15982562  0.74857754  0.36857369    -0.52200
C113        C  0.21905985  0.84362773  0.35432919     0.69800
O114        O  0.18786276  0.85398217  0.35995202    -0.47100
C115        C  0.18042469  0.80652901  0.46369466     0.74500
O116        O  0.13185239  0.84990768  0.38706225    -0.59000
O117        O  0.18633280  0.77910963  0.44425520    -0.49000
O118        O  0.11459551  0.80001488  0.40782505    -0.55400
C119        C  0.13902098  0.75816372  0.34421205     0.84700
O120        O  0.22593598  0.81360103  0.36783497    -0.57300
O121        O  0.17251672  0.83325277  0.44553672    -0.60600
In122      In  0.16689983  0.81163265  0.57737706     1.36900
C123        C  0.10170109  0.83390991  0.58289988     0.77100
O124        O  0.16884249  0.83526987  0.52122752    -0.61300
O125        O  0.18632893  0.78245641  0.52464271    -0.52200
C126        C  0.21468679  0.84852281  0.61580750     0.69800
O127        O  0.18619080  0.86157629  0.60511654    -0.47100
C128        C  0.14300134  0.76276406  0.62460896     0.74500
O129        O  0.12764899  0.85448220  0.58757245    -0.59000
O130        O  0.15801307  0.75376311  0.59550832    -0.49000
O131        O  0.10934776  0.80395282  0.56932119    -0.55400
C132        C  0.17939453  0.80797185  0.50415165     0.84700
O133        O  0.22093535  0.81726865  0.60388979    -0.57300
O134        O  0.14433007  0.79557881  0.63099702    -0.60600
In135      In  0.77720997  0.80761976  0.38934749     1.36900
C136        C  0.83802291  0.83628988  0.39942799     0.77100
O137        O  0.77044011  0.83219964  0.44545362    -0.61300
O138        O  0.76702964  0.77657111  0.44298413    -0.52200
C139        C  0.72649686  0.84267551  0.35269008     0.69800
O140        O  0.75753200  0.85385373  0.35655233    -0.47100
C141        C  0.80670348  0.76236802  0.33913091     0.74500
O142        O  0.81112434  0.85493521  0.39252785    -0.59000
O143        O  0.78329470  0.75228377  0.36142179    -0.49000
O144        O  0.83335477  0.80313177  0.40181410    -0.55400
C145        C  0.76878750  0.80397693  0.46313152     0.84700
O146        O  0.72041928  0.81374906  0.36871472    -0.57300
O147        O  0.81276484  0.79520690  0.34112552    -0.60600
In148      In  0.78624433  0.80912621  0.57650404     1.36900
C149        C  0.83587088  0.85535720  0.58603451     0.77100
O150        O  0.83224302  0.77011650  0.58384247    -0.61300
O151        O  0.79123422  0.76729359  0.62167320    -0.52200
C152        C  0.73801231  0.84177858  0.62038876     0.69800
O153        O  0.77081655  0.84388182  0.62392533    -0.47100
C154        C  0.77208480  0.80449838  0.50357290     0.74500
O155        O  0.80438858  0.86571343  0.58303030    -0.59000
O156        O  0.76777778  0.77844259  0.52431755    -0.49000
O157        O  0.84187951  0.82325874  0.57807490    -0.55400
C158        C  0.82249685  0.75777113  0.61323387     0.84700
O159        O  0.72889150  0.82052489  0.59562488    -0.57300
O160        O  0.78170715  0.83208736  0.52025888    -0.60600
C161        C  0.97490082  0.89441242  0.43515339    -0.02900
C162        C  0.97426833  0.89786220  0.59355010    -0.02900
In163      In  0.66126661  0.08741211  0.29389475     1.36900
C164        C  0.60948068  0.10409287  0.33765223     0.77100
O165        O  0.62436359  0.09405487  0.24791219    -0.61300
O166        O  0.65780687  0.13747027  0.25812532    -0.52200
C167        C  0.71732750  0.12097991  0.32391680     0.69800
O168        O  0.68662424  0.12061662  0.33696791    -0.47100
C169        C  0.66320305  0.01305897  0.29237430     0.74500
O170        O  0.64035813  0.09754971  0.34803695    -0.59000
O171        O  0.68001405  0.03160993  0.26991998    -0.49000
O172        O  0.60499165  0.10039642  0.30500406    -0.55400
C173        C  0.63149061  0.12604125  0.24124555     0.84700
O174        O  0.72027676  0.10355450  0.29488352    -0.57300
O175        O  0.64749717  0.03226969  0.31515582    -0.60600
In176      In  0.64889720  0.89951318  0.29690268     1.36900
C177        C  0.59237208  0.89054947  0.33734796     0.77100
O178        O  0.64198179  0.95725652  0.31636118    -0.61300
O179        O  0.67415302  0.95066039  0.27109508    -0.52200
C180        C  0.69970413  0.86234359  0.33166779     0.69800
O181        O  0.66706079  0.85757138  0.33575825    -0.47100
C182        C  0.62295974  0.86197244  0.24115238     0.74500
O183        O  0.62261966  0.89722628  0.34943643    -0.59000
O184        O  0.61660037  0.89455970  0.24681734    -0.49000
O185        O  0.59060806  0.89096816  0.30424659    -0.55400
C186        C  0.66023047  0.97267160  0.29301252     0.84700
O187        O  0.70710789  0.88565679  0.30870192    -0.57300
O188        O  0.64672143  0.84971636  0.26071456    -0.60600
In189      In  0.29606215  0.09395844  0.30314086     1.36900
C190        C  0.35448442  0.09066297  0.34058818     0.77100
O191        O  0.28006595  0.03912397  0.32572076    -0.61300
O192        O  0.29041274  0.04010322  0.27125554    -0.52200
C193        C  0.24269832  0.13185289  0.33524970     0.69800
O194        O  0.27398812  0.13150482  0.34580056    -0.47100
C195        C  0.32351059  0.13719248  0.25139203     0.74500
O196        O  0.32562973  0.10196366  0.35350104    -0.59000
O197        O  0.29983289  0.11406132  0.24539776    -0.49000
O198        O  0.35245168  0.07827241  0.30946067    -0.55400
C199        C  0.28305660  0.02085821  0.29753478     0.84700
O200        O  0.23811089  0.11292537  0.30764933    -0.57300
O201        O  0.33124655  0.13946554  0.28346154    -0.60600
In202      In  0.29366451  0.90771340  0.30171500     1.36900
C203        C  0.34863088  0.92190479  0.33998537     0.77100
O204        O  0.33433374  0.86623463  0.28363496    -0.61300
O205        O  0.29725638  0.88220549  0.24571919    -0.52200
C206        C  0.24505833  0.86571962  0.33441254     0.69800
O207        O  0.27776887  0.86355416  0.33921441    -0.47100
C208        C  0.28151479  0.98036908  0.29685711     0.74500
O209        O  0.31972303  0.91161721  0.35342136    -0.59000
O210        O  0.28758095  0.96054005  0.26994147    -0.49000
O211        O  0.34869589  0.92543390  0.30694432    -0.55400
C212        C  0.32404238  0.86292008  0.25234210     0.84700
O213        O  0.23661060  0.88911749  0.31209996    -0.57300
O214        O  0.27716497  0.96256099  0.32460900    -0.60600
C215        C  0.47731118  0.92823125  0.42336523    -0.02900
C216        C  0.48622974  0.08594121  0.42038300    -0.02900
In217      In  0.38585194  0.18373638  0.17076226     1.36900
C218        C  0.39668038  0.12064709  0.14440261     0.77100
O219        O  0.44041956  0.18608902  0.14235692    -0.61300
O220        O  0.44082925  0.19817748  0.19662494    -0.52200
C221        C  0.34729625  0.23367279  0.13558465     0.69800
O222        O  0.34621920  0.20072855  0.12926383    -0.47100
C223        C  0.34301027  0.15751432  0.22333943     0.74500
O224        O  0.38326015  0.14484902  0.12587176    -0.59000
O225        O  0.36719683  0.18025145  0.22929759    -0.49000
O226        O  0.40298963  0.12875247  0.17612150    -0.55400
C227        C  0.45951102  0.19209334  0.16891338     0.84700
O228        O  0.36855646  0.24188502  0.16009236    -0.57300
O229        O  0.33890577  0.15115920  0.19097392    -0.60600
In230      In  0.57302931  0.17490054  0.16216429     1.36900
C231        C  0.59716033  0.11506697  0.13201398     0.77100
O232        O  0.61638503  0.17783829  0.20508761    -0.61300
O233        O  0.58077701  0.13469718  0.20507417    -0.52200
C234        C  0.60814055  0.22516000  0.12484755     0.69800
O235        O  0.58856591  0.20178724  0.11080575    -0.47100
C236        C  0.49994284  0.18885593  0.16698747     0.74500
O237        O  0.60859171  0.14516662  0.12330235    -0.59000
O238        O  0.52146849  0.19791206  0.19095879    -0.49000
O239        O  0.56979234  0.11617205  0.15141008    -0.55400
C240        C  0.60919605  0.14720848  0.21682613     0.84700
O241        O  0.60715179  0.22518550  0.15845448    -0.57300
O242        O  0.51587402  0.17462194  0.14078354    -0.60600
In243      In  0.57164360  0.80448878  0.16136988     1.36900
C244        C  0.59804441  0.85246426  0.11748011     0.77100
O245        O  0.51457040  0.80612780  0.14199378    -0.61300
O246        O  0.52017185  0.78970093  0.19434471    -0.52200
C247        C  0.60279520  0.74701597  0.12962840     0.69800
O248        O  0.57883549  0.76512319  0.11561690    -0.47100
C249        C  0.60289170  0.84036858  0.21491572     0.74500
O250        O  0.56527952  0.84936038  0.12347631    -0.59000
O251        O  0.60528337  0.80680066  0.21139621    -0.49000
O252        O  0.61713546  0.83027595  0.13282627    -0.55400
C253        C  0.49870667  0.79688370  0.16989679     0.84700
O254        O  0.60805077  0.75537195  0.16159403    -0.57300
O255        O  0.58132884  0.85442139  0.19410377    -0.60600
In256      In  0.38604288  0.81032565  0.17409068     1.36900
C257        C  0.39811904  0.87143405  0.14556109     0.77100
O258        O  0.33783234  0.84229985  0.19301046    -0.61300
O259        O  0.36956565  0.82007403  0.23254253    -0.52200
C260        C  0.34569005  0.76243463  0.13877057     0.69800
O261        O  0.34690242  0.79501291  0.13188128    -0.47100
C262        C  0.45850035  0.79710529  0.17253191     0.74500
O263        O  0.38885055  0.84473733  0.12723727    -0.59000
O264        O  0.43971073  0.79291767  0.20031746    -0.49000
O265        O  0.40035336  0.86642200  0.17825194    -0.55400
C266        C  0.34371274  0.84043559  0.22553239     0.84700
O267        O  0.36500631  0.75364611  0.16446722    -0.57300
O268        O  0.43992429  0.80418154  0.14612601    -0.60600
C269        C  0.45416417  0.99479998  0.07515401    -0.02900
C270        C  0.61093235  0.98853734  0.06272282    -0.02900
In271      In  0.38756037  0.18082288  0.80629183     1.36900
C272        C  0.39773787  0.13095416  0.85232806     0.77100
O273        O  0.35011968  0.13696747  0.78653814    -0.61300
O274        O  0.36268148  0.17769404  0.75073137    -0.52200
C275        C  0.34519866  0.23289737  0.83583496     0.69800
O276        O  0.34050724  0.20017973  0.84048771    -0.47100
C277        C  0.46092734  0.18991757  0.79806503     0.74500
O278        O  0.39269738  0.16290355  0.86193886    -0.59000
O279        O  0.44026657  0.18667549  0.77200976    -0.49000
O280        O  0.39712075  0.12475211  0.81945064    -0.55400
C281        C  0.34537199  0.14924294  0.75619037     0.84700
O282        O  0.37072293  0.23935499  0.81480233    -0.57300
O283        O  0.44391491  0.19194517  0.82685864    -0.60600
In284      In  0.57478053  0.17630624  0.79519514     1.36900
C285        C  0.59757674  0.11799757  0.82600345     0.77100
O286        O  0.51965314  0.17990706  0.82295096    -0.61300
O287        O  0.52067581  0.19298730  0.76938533    -0.52200
C288        C  0.61270345  0.22895289  0.82667242     0.69800
O289        O  0.60469577  0.20009576  0.84143006    -0.47100
C290        C  0.61186369  0.14755555  0.73995127     0.74500
O291        O  0.60625985  0.14872082  0.83629524    -0.59000
O292        O  0.58230055  0.13611456  0.75028550    -0.49000
O293        O  0.57274865  0.11752238  0.80412673    -0.55400
C294        C  0.50136873  0.18825476  0.79656384     0.84700
O295        O  0.59906381  0.23246668  0.79629377    -0.57300
O296        O  0.61968602  0.17751330  0.75337633    -0.60600
In297      In  0.38476109  0.82465431  0.80621464     1.36900
C298        C  0.39236008  0.88640390  0.83789323     0.77100
O299        O  0.43957994  0.81904382  0.83225604    -0.61300
O300        O  0.43951059  0.81177662  0.77729438    -0.52200
C301        C  0.34679272  0.77244990  0.83911895     0.69800
O302        O  0.34591747  0.80471834  0.84839774    -0.47100
C303        C  0.33872553  0.84970744  0.75666507     0.74500
O304        O  0.38325105  0.85864900  0.85411503    -0.59000
O305        O  0.36372784  0.82802737  0.74902336    -0.49000
O306        O  0.39768624  0.88225309  0.80502701    -0.55400
C307        C  0.45840943  0.81424785  0.80478233     0.84700
O308        O  0.36761028  0.76628205  0.81314622    -0.57300
O309        O  0.33661144  0.85700281  0.78911757    -0.60600
In310      In  0.57322327  0.81803233  0.81027251     1.36900
C311        C  0.59048906  0.86635353  0.85697540     0.77100
O312        O  0.59757113  0.86446741  0.78138957    -0.61300
O313        O  0.60576496  0.81402402  0.75753168    -0.52200
C314        C  0.61312753  0.76373464  0.83619199     0.69800
O315        O  0.58464650  0.75837400  0.81964757    -0.47100
C316        C  0.49893284  0.81373744  0.80580618     0.74500
O317        O  0.58509706  0.83461448  0.86640690    -0.59000
O318        O  0.51971097  0.80757723  0.77982426    -0.49000
O319        O  0.58074733  0.87373866  0.82614975    -0.55400
C320        C  0.61340908  0.84697642  0.75751421     0.84700
O321        O  0.62153610  0.79590902  0.83795073    -0.57300
O322        O  0.51593590  0.82092225  0.83348929    -0.60600
C323        C  0.45209145  0.00394849  0.91600653    -0.02900
C324        C  0.61098183  0.00012169  0.90893265    -0.02900
In325      In  0.28957236  0.68870492  0.07677388     1.36900
C326        C  0.32149186  0.62884264  0.06457461     0.77100
O327        O  0.27317637  0.65111357  0.12074144    -0.61300
O328        O  0.23289178  0.68384892  0.10086724    -0.52200
C329        C  0.32453421  0.73693373  0.11733549     0.69800
O330        O  0.33124511  0.70419669  0.11646090    -0.47100
C331        C  0.28757716  0.70034829  0.00425142     0.74500
O332        O  0.33817019  0.65644930  0.07401075    -0.59000
O333        O  0.26001760  0.70135845  0.02391867    -0.49000
O334        O  0.28869897  0.63269830  0.06031844    -0.55400
C335        C  0.24090366  0.65881043  0.12172598     0.84700
O336        O  0.29929138  0.74579014  0.09745070    -0.57300
O337        O  0.31536311  0.69732903  0.02200980    -0.60600
In338      In  0.29081243  0.69009061  0.89053809     1.36900
C339        C  0.32170123  0.62783794  0.88329455     0.77100
O340        O  0.31574894  0.69158576  0.94608492    -0.61300
O341        O  0.26190494  0.70468977  0.94432626    -0.52200
C342        C  0.32597092  0.74426045  0.85760528     0.69800
O343        O  0.33610329  0.71245062  0.85774412    -0.47100
C344        C  0.23861832  0.66236450  0.84862604     0.74500
O345        O  0.33687240  0.65651651  0.87524381    -0.59000
O346        O  0.23229116  0.67846358  0.87773145    -0.49000
O347        O  0.29266084  0.63169841  0.89966883    -0.55400
C348        C  0.28827221  0.69959562  0.96394508     0.84700
O349        O  0.29718371  0.74936208  0.87469125    -0.57300
O350        O  0.27025160  0.66517650  0.83875578    -0.60600
In351      In  0.28718953  0.30907371  0.07917100     1.36900
C352        C  0.31094200  0.37226104  0.06849853     0.77100
O353        O  0.31446792  0.30496136  0.02438071    -0.61300
O354        O  0.26028544  0.29301342  0.02523319    -0.52200
C355        C  0.32564985  0.25992048  0.11547402     0.69800
O356        O  0.33437493  0.29203672  0.11226367    -0.47100
C357        C  0.23707944  0.33773025  0.12438856     0.74500
O358        O  0.32897124  0.34905548  0.08419829    -0.59000
O359        O  0.23004283  0.31283721  0.10238749    -0.49000
O360        O  0.28071230  0.36298413  0.05821320    -0.55400
C361        C  0.28754315  0.29857928  0.00600458     0.84700
O362        O  0.29721536  0.25223063  0.09961750    -0.57300
O363        O  0.26938438  0.34500384  0.12533070    -0.60600
In364      In  0.29186862  0.31485441  0.89296534     1.36900
C365        C  0.33375781  0.36991334  0.88129977     0.77100
O366        O  0.24507589  0.35346977  0.88774684    -0.61300
O367        O  0.25611002  0.32046266  0.84369402    -0.52200
C368        C  0.32430062  0.26121363  0.85508690     0.69800
O369        O  0.33510113  0.29278635  0.85677242    -0.47100
C370        C  0.28850805  0.30129639  0.96574341     0.74500
O371        O  0.34499555  0.33832822  0.88135630    -0.59000
O372        O  0.26378619  0.29317861  0.94482233    -0.49000
O373        O  0.30189601  0.37352766  0.89078860    -0.55400
C374        C  0.23865836  0.34686816  0.85569434     0.84700
O375        O  0.29561533  0.25630212  0.87235756    -0.57300
O376        O  0.31451734  0.31451201  0.94939002    -0.60600
C377        C  0.40505581  0.50138955  0.87928162    -0.02900
C378        C  0.39540315  0.49532165  0.03983091    -0.02900
In379      In  0.65921633  0.66820966  0.07205987     1.36900
C380        C  0.62517240  0.60657191  0.06732515     0.77100
O381        O  0.64185247  0.69099944  0.01853197    -0.61300
O382        O  0.69441711  0.67425681  0.02047956    -0.52200
C383        C  0.62343020  0.71953465  0.10942669     0.69800
O384        O  0.65649921  0.71514039  0.11187583    -0.47100
C385        C  0.70798432  0.64310886  0.11805636     0.74500
O386        O  0.61100773  0.63482597  0.07886295    -0.59000
O387        O  0.71499657  0.66670418  0.09518261    -0.49000
O388        O  0.65644352  0.61043631  0.05609772    -0.55400
C389        C  0.67004426  0.68582156  0.00111712     0.84700
O390        O  0.60942362  0.69926304  0.08691409    -0.57300
O391        O  0.67591330  0.63413168  0.11878316    -0.60600
In392      In  0.66805683  0.68276716  0.88788723     1.36900
C393        C  0.62817809  0.62777286  0.89298507     0.77100
O394        O  0.68509396  0.64139459  0.84613262    -0.61300
O395        O  0.72307946  0.67995134  0.85955077    -0.52200
C396        C  0.63408268  0.73546842  0.85359908     0.69800
O397        O  0.66294017  0.74081379  0.86973110    -0.47100
C398        C  0.67211585  0.68969197  0.96117644     0.74500
O399        O  0.61678072  0.65617712  0.87989561    -0.59000
O400        O  0.69866972  0.68209706  0.94167650    -0.49000
O401        O  0.65936820  0.62814770  0.90431924    -0.55400
C402        C  0.71615943  0.65196624  0.84157253     0.84700
O403        O  0.62363267  0.70380153  0.85464459    -0.57300
O404        O  0.64557340  0.69788635  0.94318648    -0.60600
In405      In  0.66280379  0.30232186  0.06502302     1.36900
C406        C  0.60749127  0.34356485  0.07571269     0.77100
O407        O  0.69004088  0.35170108  0.08607658    -0.61300
O408        O  0.71640056  0.30277542  0.09430640    -0.52200
C409        C  0.63029646  0.25009297  0.10341184     0.69800
O410        O  0.65086200  0.27273752  0.11669519    -0.47100
C411        C  0.67444256  0.30149657  0.99192320     0.74500
O412        O  0.60571152  0.31532364  0.05749542    -0.59000
O413        O  0.68788439  0.27816269  0.01183934    -0.49000
O414        O  0.63724321  0.34981129  0.08871993    -0.55400
C415        C  0.71547173  0.33622257  0.10062021     0.84700
O416        O  0.62986862  0.25108984  0.07009566    -0.57300
O417        O  0.65773979  0.32497503  0.00948124    -0.60600
In418      In  0.67289122  0.30859602  0.87817312     1.36900
C419        C  0.63269371  0.36465042  0.87130609     0.77100
O420        O  0.65817197  0.32512569  0.93504266    -0.61300
O421        O  0.69289523  0.28158156  0.93072939    -0.52200
C422        C  0.63561504  0.25628871  0.84412115     0.69800
O423        O  0.63102697  0.28902890  0.83982979    -0.47100
C424        C  0.72723551  0.33686608  0.83818301     0.74500
O425        O  0.61974292  0.33449118  0.87790587    -0.59000
O426        O  0.72854400  0.33345170  0.87136747    -0.49000
O427        O  0.66590352  0.36591345  0.87129906    -0.55400
C428        C  0.67576263  0.30238927  0.95162283     0.84700
O429        O  0.66062430  0.24939343  0.86511282    -0.57300
O430        O  0.70153735  0.32034481  0.82503611    -0.60600
C431        C  0.55612418  0.49270348  0.89226745    -0.02900
C432        C  0.54808937  0.47520053  0.04736597    -0.02900
In433      In  0.15780488  0.40356990  0.17100061     1.36900
C434        C  0.12400013  0.38949038  0.11204438     0.77100
O435        O  0.13760348  0.46120727  0.16508636    -0.61300
O436        O  0.18659163  0.45655876  0.18960806    -0.52200
C437        C  0.12397354  0.37199517  0.22563206     0.69800
O438        O  0.10900039  0.39244606  0.20444373    -0.47100
C439        C  0.21006263  0.35926739  0.14479811     0.74500
O440        O  0.11088058  0.38286966  0.14203736    -0.59000
O441        O  0.21639534  0.38907586  0.15973822    -0.49000
O442        O  0.15237968  0.40710948  0.11269635    -0.55400
C443        C  0.16317282  0.47780202  0.17856477     0.84700
O444        O  0.15725446  0.37086598  0.22178318    -0.57300
O445        O  0.17797578  0.35093550  0.14625117    -0.60600
In446      In  0.16504465  0.59224799  0.17007969     1.36900
C447        C  0.13655200  0.58639904  0.10873897     0.77100
O448        O  0.18230696  0.64349650  0.14269290    -0.61300
O449        O  0.22293397  0.61012581  0.16061271    -0.52200
C450        C  0.12760990  0.62964392  0.21962754     0.69800
O451        O  0.12031574  0.62868670  0.18742562    -0.47100
C452        C  0.16468915  0.51846307  0.17929191     0.74500
O453        O  0.11896555  0.59539108  0.13605319    -0.59000
O454        O  0.19134516  0.53767272  0.18667845    -0.49000
O455        O  0.16873665  0.57940533  0.11346562    -0.55400
C456        C  0.21494972  0.63758741  0.14305877     0.84700
O457        O  0.15456860  0.61114769  0.22734193    -0.57300
O458        O  0.13861827  0.53708462  0.17031185    -0.60600
In459      In  0.16263851  0.59423890  0.80158395     1.36900
C460        C  0.12274539  0.58754342  0.85718399     0.77100
O461        O  0.13897024  0.53789675  0.79497439    -0.61300
O462        O  0.19415489  0.53973275  0.79250753    -0.52200
C463        C  0.13021572  0.63441344  0.75209632     0.69800
O464        O  0.12479355  0.63772116  0.78472270    -0.47100
C465        C  0.21226176  0.63939741  0.82972910     0.74500
O466        O  0.10973231  0.59003881  0.82676237    -0.59000
O467        O  0.21909404  0.61897828  0.80329226    -0.49000
O468        O  0.15605146  0.58814534  0.85887159    -0.55400
C469        C  0.16700721  0.51978423  0.79291643     0.84700
O470        O  0.15309029  0.61077451  0.74404121    -0.57300
O471        O  0.18096110  0.63672049  0.84074148    -0.60600
In472      In  0.16092079  0.40461418  0.80026969     1.36900
C473        C  0.11479696  0.38470535  0.84869840     0.77100
O474        O  0.20870872  0.36568937  0.80162840    -0.61300
O475        O  0.19477324  0.39341500  0.84857928    -0.52200
C476        C  0.12898259  0.37189308  0.74435176     0.69800
O477        O  0.11442468  0.37785986  0.77373553    -0.47100
C478        C  0.16636912  0.47897474  0.79322482     0.74500
O479        O  0.12129015  0.41711682  0.84252258    -0.59000
O480        O  0.19273882  0.45813279  0.78985880    -0.49000
O481        O  0.13208595  0.36251433  0.83015834    -0.55400
C482        C  0.21354162  0.36906204  0.83460159     0.84700
O483        O  0.15993990  0.38476271  0.74187335    -0.57300
O484        O  0.13816016  0.46184803  0.79851315    -0.60600
C485        C  0.05374633  0.38695484  0.98431828    -0.02900
C486        C  0.05761223  0.54275375  0.98840024    -0.02900
In487      In  0.79413425  0.39685664  0.15254038     1.36900
C488        C  0.82691123  0.39078777  0.09088629     0.77100
O489        O  0.76820504  0.34315342  0.13672159    -0.61300
O490        O  0.73936603  0.38997673  0.12785474    -0.52200
C491        C  0.82690589  0.35787529  0.20314732     0.69800
O492        O  0.84169406  0.36782415  0.17495603    -0.47100
C493        C  0.79176243  0.46987805  0.16835400     0.74500
O494        O  0.84195535  0.38475016  0.11966303    -0.59000
O495        O  0.76748147  0.44856970  0.17777280    -0.49000
O496        O  0.79634415  0.40388658  0.09417547    -0.55400
C497        C  0.74146082  0.35666912  0.12262660     0.84700
O498        O  0.79532569  0.36927184  0.20676507    -0.57300
O499        O  0.81731966  0.45361433  0.15356663    -0.60600
In500      In  0.78972225  0.58446431  0.16484421     1.36900
C501        C  0.81963072  0.58171957  0.10208571     0.77100
O502        O  0.81655872  0.52933948  0.16172807    -0.61300
O503        O  0.76427412  0.52943766  0.18101563    -0.52200
C504        C  0.82476479  0.62398573  0.21539880     0.69800
O505        O  0.80234722  0.60009856  0.22313227    -0.47100
C506        C  0.73560503  0.62497195  0.13944853     0.74500
O507        O  0.83673093  0.58878477  0.12980587    -0.56600
O508        O  0.73009337  0.59901874  0.16003302    -0.49000
O509        O  0.78759167  0.57396207  0.10713505    -0.55400
C510        C  0.79070608  0.51046157  0.17138751     0.84700
O511        O  0.82874884  0.62753783  0.18267949    -0.57300
O512        O  0.76778130  0.63208516  0.13562996    -0.60600
In513      In  0.80184500  0.39932681  0.78098136     1.36900
C514        C  0.85507444  0.38054059  0.82124256     0.77100
O515        O  0.79789773  0.45506415  0.80690103    -0.61300
O516        O  0.78130886  0.45268436  0.75446974    -0.52200
C517        C  0.83390188  0.36946758  0.72269371     0.69800
O518        O  0.80318468  0.36093509  0.73308936    -0.47100
C519        C  0.75190949  0.36039136  0.81730766     0.74500
O520        O  0.85174315  0.41177438  0.80975649    -0.59000
O521        O  0.75007036  0.36591694  0.78429698    -0.49000
O522        O  0.83278606  0.35863608  0.80981553    -0.55400
C523        C  0.78756106  0.47279870  0.78094138     0.84700
O524        O  0.84632555  0.39578323  0.73938756    -0.57300
O525        O  0.77647941  0.37766007  0.83164926    -0.60600
In526      In  0.79355429  0.58771802  0.79036121     1.36900
C527        C  0.83492032  0.59203722  0.84479967     0.77100
O528        O  0.77470276  0.63864057  0.81864835    -0.61300
O529        O  0.73519576  0.60250182  0.80254667    -0.52200
C530        C  0.83007770  0.62589591  0.74146362     0.69800
O531        O  0.79700353  0.62926294  0.74607378    -0.47100
C532        C  0.78598398  0.51355256  0.78266653     0.74500
O533        O  0.84706865  0.58952715  0.81364769    -0.59000
O534        O  0.77825788  0.53485331  0.75801497    -0.49000
O535        O  0.80177724  0.59130240  0.84785649    -0.55400
C536        C  0.74236932  0.63108402  0.81950545     0.84700
O537        O  0.84311587  0.60050723  0.75837741    -0.57300
O538        O  0.79485145  0.53021425  0.81019910    -0.60600
C539        C  0.89860156  0.39763667  0.95950897    -0.02900
C540        C  0.89945079  0.55463679  0.97438265    -0.02900
In541      In  0.15956413  0.18304568  0.39192825     1.36900
C542        C  0.10243118  0.14371289  0.39286083     0.77100
O543        O  0.15588731  0.15799621  0.44726604    -0.61300
O544        O  0.17776037  0.20912225  0.44627356    -0.52200
C545        C  0.21396459  0.15163028  0.35458184     0.69800
O546        O  0.18193285  0.14506802  0.34976097    -0.47100
C547        C  0.12988121  0.23665654  0.35267552     0.74500
O548        O  0.13242447  0.13071864  0.38501257    -0.59000
O549        O  0.14807909  0.24270220  0.38004377    -0.49000
O550        O  0.10257406  0.17636207  0.40124546    -0.55400
C551        C  0.16801310  0.18337673  0.46555412     0.84700
O552        O  0.21893271  0.17545479  0.37806527    -0.57300
O553        O  0.12960774  0.20429078  0.34406160    -0.60600
In554      In  0.16201021  0.17835839  0.57961514     1.36900
C555        C  0.10329405  0.14346882  0.59356608     0.77100
O556        O  0.13134913  0.20224486  0.62635336    -0.61300
O557        O  0.15366130  0.23827017  0.58999011    -0.52200
C558        C  0.21561473  0.14641780  0.61462402     0.69800
O559        O  0.20087276  0.13261248  0.58808303    -0.47100
C560        C  0.16855076  0.18217735  0.50592825     0.74500
O561        O  0.13274406  0.13356396  0.60514550    -0.59000
O562        O  0.18079453  0.20593124  0.52665712    -0.49000
O563        O  0.10491192  0.16888688  0.57222073    -0.55400
C564        C  0.13401583  0.23399709  0.61712489     0.84700
O565        O  0.20651768  0.17839747  0.62033684    -0.57300
O566        O  0.15510832  0.15662756  0.52278130    -0.60600
In567      In  0.80543967  0.17003951  0.56418814     1.36900
C568        C  0.85582216  0.12282942  0.57356984     0.77100
O569        O  0.80720048  0.14733990  0.50767979    -0.61300
O570        O  0.78876503  0.19986031  0.51232795    -0.52200
C571        C  0.75392096  0.14125963  0.60575487     0.69800
O572        O  0.78178518  0.15437975  0.61797118    -0.47100
C573        C  0.83434823  0.22738050  0.59770380     0.74500
O574        O  0.82365381  0.11414962  0.57499738    -0.59000
O575        O  0.80203439  0.22686821  0.58880924    -0.49000
O576        O  0.86183533  0.15443649  0.56456607    -0.55400
C577        C  0.79612107  0.17409745  0.49141553     0.84700
O578        O  0.75074976  0.14582576  0.57294037    -0.57300
O579        O  0.85123481  0.20002513  0.58801889    -0.60600
In580      In  0.80157723  0.16994099  0.37812901     1.36900
C581        C  0.85772796  0.13044605  0.38531797     0.77100
O582        O  0.83414867  0.18962796  0.33065831    -0.61300
O583        O  0.80910222  0.22858254  0.36304987    -0.52200
C584        C  0.74681598  0.13975601  0.34220164     0.69800
O585        O  0.77875986  0.13507940  0.33394983    -0.47100
C586        C  0.79402515  0.17402318  0.45133390     0.74500
O587        O  0.82845721  0.11696664  0.37686466    -0.59000
O588        O  0.79041188  0.20107453  0.43187825    -0.49000
O589        O  0.85837847  0.16389497  0.38855162    -0.55400
C590        C  0.82962909  0.22231928  0.33681709     0.84700
O591        O  0.74234704  0.16106741  0.36818781    -0.57300
O592        O  0.79817010  0.14572011  0.43339312    -0.60600
C593        C  0.98416571  0.05137456  0.42283551    -0.02900
C594        C  0.98877726  0.05013489  0.58109322    -0.02900
In595      In  0.07465791  0.31737748  0.66331140     1.36900
C596        C  0.11377839  0.26296937  0.63526722     0.77100
O597        O  0.09423447  0.34151789  0.61474439    -0.61300
O598        O  0.05474748  0.36927064  0.64613291    -0.52200
C599        C  0.00156380  0.30740329  0.65867422     0.69800
O600        O  0.01776183  0.30627687  0.68777553    -0.47100
C601        C  0.11054103  0.35155690  0.71602048     0.74500
O602        O  0.09443314  0.25913619  0.66267104    -0.59000
O603        O  0.11561657  0.35711160  0.68382011    -0.49000
O604        O  0.11305433  0.29376335  0.62321676    -0.55400
C605        C  0.07267752  0.36699648  0.61767922     0.84700
O606        O  0.02268688  0.31012148  0.63287148    -0.57300
O607        O  0.08756837  0.32776848  0.72185152    -0.60600
In608      In  0.88945957  0.31445907  0.64113129     1.36900
C609        C  0.88055530  0.34986491  0.58146715     0.77100
O610        O  0.94821371  0.31902053  0.62564858    -0.61300
O611        O  0.93829097  0.30007721  0.67662064    -0.52200
C612        C  0.85430057  0.34965517  0.69449050     0.69800
O613        O  0.87838866  0.36377180  0.67593866    -0.47100
C614        C  0.85221772  0.25735452  0.61657897     0.74500
O615        O  0.87114787  0.36244962  0.61127417    -0.59000
O616        O  0.88231412  0.25458104  0.63062536    -0.49000
O617        O  0.89723940  0.32091945  0.58294808    -0.55400
C618        C  0.96171776  0.30835737  0.65387233     0.84700
O619        O  0.84971208  0.31694928  0.68739344    -0.57300
O620        O  0.83981107  0.28839179  0.61832971    -0.60600
In621      In  0.06774339  0.31619179  0.30384400     1.36900
C622        C  0.10879967  0.26430825  0.33366209     0.77100
O623        O  0.07156203  0.35628008  0.25906546    -0.61300
O624        O  0.11673796  0.32534488  0.26873685    -0.52200
C625        C  0.99586221  0.30492247  0.29312848     0.69800
O626        O  0.01944898  0.28770409  0.27569024    -0.47100
C627        C  0.06907986  0.36174398  0.35711966     0.74500
O628        O  0.08784241  0.25784457  0.30832234    -0.59000
O629        O  0.07646515  0.37133145  0.32607987    -0.49000
O630        O  0.10901468  0.29659406  0.34278530    -0.55400
C631        C  0.10372924  0.35074447  0.25182802     0.84700
O632        O  0.00914045  0.32592724  0.31545648    -0.57300
O633        O  0.05951826  0.32971955  0.36012449    -0.60600
In634      In  0.88237077  0.30640901  0.28469492     1.36900
C635        C  0.87034521  0.35979119  0.32791703     0.77100
O636        O  0.84903073  0.28224003  0.32821913    -0.61300
O637        O  0.86533175  0.24670351  0.28756700    -0.52200
C638        C  0.84574436  0.33587645  0.22989851     0.69800
O639        O  0.83168738  0.32649973  0.25850443    -0.47100
C640        C  0.95600870  0.30293748  0.28893095     0.74500
O641        O  0.88169287  0.36472517  0.29679517    -0.59000
O642        O  0.93882023  0.28305200  0.26787974    -0.49000
O643        O  0.86624429  0.32779469  0.33655629    -0.55400
C644        C  0.84821740  0.25087793  0.31657269     0.84700
O645        O  0.87774299  0.32620245  0.22711225    -0.57300
O646        O  0.93586054  0.32284112  0.30711237    -0.60600
C647        C  0.03643265  0.43291201  0.48691873    -0.02900
C648        C  0.88246352  0.43470324  0.45697095    -0.02900
C649        C  0.94366186  0.40132944  0.45396813    -0.09600
C650        C  0.92429918  0.43356878  0.45626591     0.06600
C651        C  0.94575694  0.46442692  0.45382127    -0.03400
C652        C  0.98029242  0.46339520  0.46486105    -0.07800
C653        C  0.99739035  0.43141537  0.47379287     0.05700
C654        C  0.97969552  0.39980860  0.46231849    -0.02900
Br655      Br  0.00006337  0.35288299  0.46045465    -0.02600
H656        H  0.93167780  0.37703146  0.44506904     0.09600
H657        H  0.99425425  0.48817353  0.46339418     0.07600
Br658      Br  0.93451759  0.50659364  0.42812427    -0.03000
C659        C  0.89217696  0.43232088  0.39006760    -0.09600
C660        C  0.87066233  0.42292634  0.41948764     0.06600
C661        C  0.84046334  0.40176520  0.41232997    -0.03400
C662        C  0.83854898  0.38359336  0.37996581    -0.07800
C663        C  0.86475974  0.38812020  0.35385165     0.05700
C664        C  0.88981469  0.41503624  0.35772103    -0.02900
Br665      Br  0.92582007  0.42513951  0.32278957    -0.02600
H666        H  0.91374100  0.45048067  0.39246112     0.09600
H667        H  0.81756377  0.36438999  0.37585241     0.07600
Br668      Br  0.80025530  0.39717731  0.44352570    -0.03000
C669        C  0.05315493  0.43622258  0.42218663    -0.09600
C670        C  0.05847573  0.41823191  0.45454209     0.06600
C671        C  0.07718753  0.38475776  0.45225399    -0.03400
C672        C  0.08386077  0.36926303  0.41912832    -0.07800
C673        C  0.07204886  0.38487836  0.38827023     0.05700
C674        C  0.05893049  0.41968334  0.38943761    -0.02900
Br675      Br  0.04305011  0.44367203  0.34803057    -0.02600
H676        H  0.04006438  0.46181303  0.42219144     0.09600
H677        H  0.09541844  0.34275916  0.41754522     0.07600
Br678      Br  0.08907797  0.35192721  0.48920931    -0.03000
C679        C  0.85386306  0.39988709  0.54871012    -0.09600
C680        C  0.87235970  0.36747664  0.54779617     0.06600
C681        C  0.88027648  0.35195444  0.51437337    -0.03400
C682        C  0.87666906  0.37237997  0.48405403    -0.07800
C683        C  0.86829325  0.40896721  0.48639918     0.05700
C684        C  0.84938540  0.41951821  0.51790642    -0.02900
Br685      Br  0.81386500  0.45653270  0.52138778    -0.02600
H686        H  0.84255813  0.40996868  0.57338985     0.09600
H687        H  0.88146910  0.35971049  0.45863150     0.07600
Br688      Br  0.89582632  0.30350023  0.50754151    -0.03000
C689        C  0.02908572  0.38307986  0.57595739    -0.09600
C690        C  0.06361902  0.38709648  0.58723641     0.06600
C691        C  0.08893216  0.40361621  0.56612394    -0.03400
C692        C  0.07868547  0.41747108  0.53410067    -0.07800
C693        C  0.04372840  0.41313831  0.52122143     0.05700
C694        C  0.01840699  0.39555098  0.54357657    -0.02900
Br695      Br  0.96769601  0.39218247  0.53997626    -0.02600
H696        H  0.01001291  0.36957994  0.59278105     0.09600
H697        H  0.09862041  0.43082300  0.51825447     0.07600
Br698      Br  0.13762103  0.40701065  0.57944398    -0.03000
C699        C  0.01528942  0.06951539  0.48169569    -0.09600
C700        C  0.98714046  0.05263793  0.46417732     0.06600
C701        C  0.96401779  0.03222792  0.48545055    -0.03400
C702        C  0.97203042  0.02567651  0.52032195    -0.07800
C703        C  0.99443117  0.04824532  0.53955037     0.05700
C704        C  0.01965147  0.06742080  0.51820637    -0.02900
Br705      Br  0.06667232  0.08259781  0.53061663    -0.02600
H706        H  0.03625890  0.08219673  0.46699147     0.09600
H707        H  0.95923498  0.00342145  0.53256166     0.07600
Br708      Br  0.91851085  0.01623146  0.47077363    -0.03000
C709        C  0.93019734  0.09092931  0.43695587    -0.09600
C710        C  0.94857169  0.06895988  0.41180985     0.06600
C711        C  0.93674234  0.07029737  0.37612625    -0.03400
C712        C  0.90553260  0.08847684  0.36821890    -0.07800
C713        C  0.88807755  0.10898963  0.39412668     0.05700
C714        C  0.90123999  0.11108184  0.42829779    -0.02900
Br715      Br  0.88216090  0.14244396  0.46440015    -0.02600
H716        H  0.93927482  0.09494028  0.46364382     0.09600
H717        H  0.89613857  0.08854325  0.34126660     0.07600
Br718      Br  0.96237004  0.05110388  0.33592447    -0.03000
C719        C  0.90956502  0.11165822  0.60731330    -0.09600
C720        C  0.88464953  0.09919253  0.58315565     0.06600
C721        C  0.88820819  0.06472521  0.56917240    -0.03400
C722        C  0.91984565  0.04645889  0.57412657    -0.07800
C723        C  0.94957322  0.06350976  0.58949540     0.05700
C724        C  0.94070089  0.09257410  0.61271271    -0.02900
Br725      Br  0.96477602  0.10328557  0.65615624    -0.02600
H726        H  0.90441030  0.13588392  0.62252286     0.09600
H727        H  0.92028358  0.01899590  0.56606492     0.07600
Br728      Br  0.85211177  0.04253617  0.54130893    -0.03000
C729        C  0.07078186  0.09449688  0.62242544    -0.09600
C730        C  0.06993330  0.12634534  0.60352240     0.06600
C731        C  0.03773464  0.13784119  0.58947159    -0.03400
C732        C  0.01123039  0.11291786  0.58461384    -0.07800
C733        C  0.01481123  0.07746041  0.59658393     0.05700
C734        C  0.04261756  0.07054755  0.62066460    -0.02900
Br735      Br  0.04427997  0.03219197  0.65389836    -0.02600
H736        H  0.09412967  0.08729600  0.63704395     0.09600
H737        H  0.98892225  0.12045453  0.56863194     0.07600
Br738      Br  0.02975897  0.18488323  0.57159796    -0.03000
C739        C  0.07073623  0.08741952  0.37893737    -0.09600
C740        C  0.07007674  0.12217116  0.39332579     0.06600
C741        C  0.03866689  0.13512681  0.40904120    -0.03400
C742        C  0.01088526  0.11197755  0.41448652    -0.07800
C743        C  0.01300590  0.07519575  0.40551834     0.05700
C744        C  0.04211455  0.06414691  0.38355133    -0.02900
Br745      Br  0.04584352  0.01984923  0.35723106    -0.02600
H746        H  0.09389390  0.07810681  0.36427906     0.09600
H747        H  0.98883607  0.12253360  0.42972587     0.07600
Br748      Br  0.03188352  0.18283496  0.42758318    -0.03000
C749        C  0.89074670  0.45365977  0.99729814    -0.09600
C750        C  0.88695511  0.43786297  0.96338185     0.06600
C751        C  0.87271190  0.46082831  0.93722165    -0.03400
C752        C  0.87357550  0.49784140  0.94276735    -0.07800
C753        C  0.88837212  0.51373083  0.97332830     0.05700
C754        C  0.88927118  0.49036903  0.00298512    -0.02900
Br755      Br  0.88128231  0.50271276  0.05232584    -0.02600
H756        H  0.89649293  0.43727938  0.01982905     0.09600
H757        H  0.86173867  0.51390123  0.92271200     0.07600
Br758      Br  0.84779517  0.44735725  0.89507295    -0.03000
C759        C  0.88750620  0.57131121  0.87417907    -0.09600
C760        C  0.85744584  0.59254418  0.87547219     0.06600
C761        C  0.84703292  0.60925983  0.90727364    -0.03400
C762        C  0.86415557  0.60055006  0.93825042    -0.07800
C763        C  0.88962628  0.57266854  0.93881194     0.05700
C764        C  0.90370761  0.56113164  0.90510061    -0.02900
Br765      Br  0.94203866  0.52888275  0.89670675    -0.02600
H766        H  0.89646766  0.55971230  0.84916031     0.09600
H767        H  0.85547995  0.61458074  0.96195939     0.07600
Br768      Br  0.80869385  0.64295750  0.91023908    -0.03000
C769        C  0.86555432  0.34826585  0.87586392    -0.09600
C770        C  0.87846560  0.37193533  0.85044431     0.06600
C771        C  0.90681168  0.39417850  0.85906866    -0.03400
C772        C  0.91486903  0.39944654  0.89457050    -0.07800
C773        C  0.89494052  0.38263473  0.92161720     0.05700
C774        C  0.87451154  0.35249131  0.91136969    -0.02900
Br775      Br  0.85906024  0.31483615  0.94195102    -0.02600
H776        H  0.84591175  0.32850797  0.86878564     0.09600
H777        H  0.93418132  0.41958373  0.90099848     0.07600
Br778      Br  0.93145195  0.42166554  0.82416747    -0.03000
C779        C  0.87020290  0.59702686  0.06390984    -0.09600
C780        C  0.83629721  0.58240242  0.06691086     0.06600
C781        C  0.82008720  0.56831241  0.03647179    -0.03400
C782        C  0.84051388  0.56298383  0.00598651    -0.07800
C783        C  0.87705658  0.57145425  0.00492552     0.05700
C784        C  0.89005981  0.59323666  0.03283057    -0.02900
Br785      Br  0.93077578  0.62334041  0.03011866    -0.02600
H786        H  0.88146684  0.61158919  0.08599464     0.09600
H787        H  0.82841162  0.54968418  0.98360223     0.07600
Br788      Br  0.77155790  0.55316788  0.03467782    -0.03000
C789        C  0.82340419  0.38959335  0.02574557    -0.09600
C790        C  0.84292374  0.38253960  0.05603975     0.06600
C791        C  0.87642540  0.36650931  0.05193654    -0.03400
C792        C  0.89211558  0.36429058  0.01847948    -0.07800
C793        C  0.87569652  0.37895202  0.98847888     0.05700
C794        C  0.83876993  0.38640707  0.99212575    -0.02900
Br795      Br  0.80768096  0.39561213  0.95374342    -0.02600
H796        H  0.79621246  0.39865002  0.02814352     0.09600
H797        H  0.91871657  0.35423045  0.01777146     0.07600
Br798      Br  0.90375596  0.34880382  0.09047418    -0.03000
C799        C  0.00118877  0.57404042  0.96490141    -0.09600
C800        C  0.01628359  0.54988782  0.98932515     0.06600
C801        C  0.99163858  0.53632876  0.01445229    -0.03400
C802        C  0.95529583  0.53929403  0.00896902    -0.07800
C803        C  0.94040870  0.55767121  0.98072670     0.05700
C804        C  0.96473009  0.57936390  0.96155569    -0.02900
Br805      Br  0.95296337  0.62180002  0.93573444    -0.02600
H806        H  0.01770675  0.59142402  0.94932856     0.09600
H807        H  0.93859777  0.52921899  0.02911236     0.07600
Br808      Br  0.00132121  0.52217021  0.06154263    -0.03000
C809        C  0.99325875  0.41775916  0.99089779    -0.09600
C810        C  0.01223582  0.38582526  0.98581397     0.06600
C811        C  0.99210130  0.35604053  0.97326785    -0.03400
C812        C  0.95603448  0.36012721  0.96515605    -0.07800
C813        C  0.93907463  0.39378024  0.96725877     0.05700
C814        C  0.96084977  0.42277193  0.97607036    -0.02900
Br815      Br  0.95981240  0.46740150  0.95333390    -0.02600
H816        H  0.00497847  0.44218358  0.99919364     0.09600
H817        H  0.94107112  0.33691921  0.95697983     0.07600
Br818      Br  0.01124107  0.30901376  0.96663683    -0.03000
C819        C  0.06187301  0.44463071  0.02180073    -0.09600
C820        C  0.06780773  0.42646674  0.98931260     0.06600
C821        C  0.08865922  0.44609603  0.96471755    -0.03400
C822        C  0.08736364  0.48330397  0.96600585    -0.07800
C823        C  0.06735207  0.50177190  0.99231615     0.05700
C824        C  0.06400225  0.48172147  0.02412696    -0.02900
Br825      Br  0.08100683  0.49672659  0.06996176    -0.02600
H826        H  0.05377050  0.43040954  0.04516584     0.09600
H827        H  0.10324491  0.49740937  0.94684920     0.07600
Br828      Br  0.12733834  0.42693727  0.93689128    -0.03000
C829        C  0.10124694  0.34770541  0.90040621    -0.09600
C830        C  0.09055299  0.37394004  0.87680671     0.06600
C831        C  0.06078051  0.39468256  0.88475867    -0.03400
C832        C  0.04734722  0.39493754  0.91896212    -0.07800
C833        C  0.06311074  0.37455044  0.94597574     0.05700
C834        C  0.08719008  0.34696099  0.93487732    -0.02900
Br835      Br  0.10313280  0.30751468  0.96269546    -0.02600
H836        H  0.12279739  0.32982111  0.89312034     0.09600
H837        H  0.02691736  0.41437323  0.92522962     0.07600
Br838      Br  0.04023934  0.42608837  0.85097117    -0.03000
C839        C  0.07712135  0.55406396  0.88771966    -0.09600
C840        C  0.10117072  0.58194919  0.88832129     0.06600
C841        C  0.10733619  0.60088829  0.91961664    -0.03400
C842        C  0.09212775  0.58919080  0.95087666    -0.07800
C843        C  0.07188879  0.55724616  0.95218742     0.05700
C844        C  0.06202179  0.54191383  0.91893700    -0.02900
Br845      Br  0.02976726  0.50331374  0.91274864    -0.02600
H846        H  0.07156720  0.54031134  0.86298739     0.09600
H847        H  0.09671472  0.60566640  0.97400948     0.07600
Br848      Br  0.13568356  0.64333048  0.92086888    -0.03000
C849        C  0.11504377  0.55393086  0.01824637    -0.09600
C850        C  0.07834443  0.56188394  0.01755944     0.06600
C851        C  0.06518649  0.58770838  0.04217048    -0.03400
C852        C  0.08569677  0.59684429  0.07108053    -0.07800
C853        C  0.11990029  0.58305501  0.07456229     0.05700
C854        C  0.13580296  0.56405235  0.04633939    -0.02900
Br855      Br  0.18397576  0.54727814  0.04527351    -0.02600
H856        H  0.12725064  0.53765360  0.99754142     0.09600
H857        H  0.07466786  0.61466721  0.09122175     0.07600
Br858      Br  0.02376033  0.61653223  0.03691863    -0.03000
C859        C  0.07256448  0.36585725  0.07945367    -0.09600
C860        C  0.10792565  0.37670458  0.07906900     0.06600
C861        C  0.12711248  0.37495555  0.04704309    -0.03400
C862        C  0.10904002  0.37032483  0.01558957    -0.07800
C863        C  0.07171337  0.36703230  0.01486639     0.05700
C864        C  0.05437236  0.36002535  0.04796036    -0.02900
Br865      Br  0.00596170  0.34581599  0.05508688    -0.02600
H866        H  0.05830291  0.36386930  0.10441703     0.09600
H867        H  0.12387933  0.37452869  0.99140616     0.07600
Br868      Br  0.17768916  0.37997547  0.04382570    -0.03000
C869        C  0.58443261  0.46885015  0.94929958    -0.09600
C870        C  0.55367614  0.47775384  0.93055287     0.06600
C871        C  0.52183438  0.47020691  0.94811917    -0.03400
C872        C  0.52053573  0.47018706  0.98478478    -0.07800
C873        C  0.55155338  0.47211236  0.00552511     0.05700
C874        C  0.58314844  0.46352367  0.98592270    -0.02900
Br875      Br  0.61781069  0.42957150  0.00018904    -0.02600
H876        H  0.60965240  0.46642987  0.93564095     0.09600
H877        H  0.49509825  0.46432337  0.99661205     0.07600
Br878      Br  0.48709656  0.44153467  0.92610738    -0.03000
C879        C  0.63006899  0.42859964  0.86103865    -0.09600
C880        C  0.61172251  0.39667238  0.86512309     0.06600
C881        C  0.57473549  0.39714222  0.86601207    -0.03400
C882        C  0.55734537  0.42972044  0.86789197    -0.07800
C883        C  0.57561729  0.46254874  0.87114027     0.05700
C884        C  0.61325343  0.46133944  0.86524055    -0.02900
Br885      Br  0.64749736  0.49930479  0.86919023    -0.02600
H886        H  0.65866704  0.42822503  0.85833730     0.09600
H887        H  0.52918197  0.42837721  0.87096080     0.07600
Br888      Br  0.54593363  0.35499114  0.86826581    -0.03000
C889        C  0.58333955  0.39786756  0.10304557    -0.09600
C890        C  0.57932351  0.37001151  0.07838081     0.06600
C891        C  0.55525312  0.37393134  0.05089445    -0.03400
C892        C  0.54354553  0.40791068  0.04320994    -0.07800
C893        C  0.55597032  0.43815032  0.06221350     0.05700
C894        C  0.57055065  0.43177956  0.09593737    -0.02900
Br895      Br  0.57227214  0.46570897  0.13444333    -0.02600
H896        H  0.59883963  0.39392724  0.12658320     0.09600
H897        H  0.52639343  0.41064407  0.02079835     0.07600
Br898      Br  0.54086406  0.33557598  0.02013995    -0.03000
C899        C  0.59568672  0.58159357  0.86144792    -0.09600
C900        C  0.60786766  0.59569184  0.89334940     0.06600
C901        C  0.60493335  0.57677322  0.92449052    -0.03400
C902        C  0.58947242  0.54367525  0.92375824    -0.07800
C903        C  0.57672350  0.52800015  0.89187789     0.05700
C904        C  0.58074925  0.54774852  0.86016904    -0.02900
Br905      Br  0.57008963  0.52932945  0.81380807    -0.02600
H906        H  0.59952008  0.59621064  0.83716706     0.09600
H907        H  0.58496986  0.53275444  0.94949004     0.07600
Br908      Br  0.61926148  0.59616134  0.96946197    -0.03000
C909        C  0.55891628  0.53300897  0.08426008    -0.09600
C910        C  0.57301096  0.50501270  0.06266111     0.06600
C911        C  0.60957436  0.50800184  0.05434657    -0.03400
C912        C  0.62505003  0.54179213  0.05351909    -0.07800
C913        C  0.60735771  0.57166283  0.06790434     0.05700
C914        C  0.57500750  0.56631388  0.08602783    -0.02900
Br915      Br  0.54997736  0.60275241  0.11263472    -0.02600
H916        H  0.53377957  0.53028373  0.09794234     0.09600
H917        H  0.65250456  0.54400994  0.04519180     0.07600
Br918      Br  0.64295761  0.47233370  0.06806100    -0.03000
C919        C  0.45654797  0.51973926  0.04286387    -0.09600
C920        C  0.43367096  0.49209023  0.05385003     0.06600
C921        C  0.44974465  0.46281841  0.07152601    -0.03400
C922        C  0.48640941  0.46187789  0.07515635    -0.07800
C923        C  0.50883838  0.48534471  0.05665616     0.05700
C924        C  0.49296331  0.51644599  0.04283202    -0.02900
Br925      Br  0.51786066  0.55334170  0.01777743    -0.02600
H926        H  0.44585540  0.54348572  0.03112657     0.09600
H927        H  0.49711820  0.43971966  0.08945947     0.07600
Br928      Br  0.42881723  0.41874796  0.08679614    -0.03000
C929        C  0.40960645  0.46922013  0.94069621    -0.09600
C930        C  0.40423647  0.50114557  0.92187828     0.06600
C931        C  0.40041737  0.53263174  0.94440450    -0.03400
C932        C  0.39881283  0.52982406  0.98104270    -0.07800
C933        C  0.40148601  0.49725411  0.99860054     0.05700
C934        C  0.41153559  0.46754643  0.97743054    -0.02900
Br935      Br  0.42526312  0.42204992  0.99592369    -0.02600
H936        H  0.41346311  0.44409028  0.92831599     0.09600
H937        H  0.39605048  0.55435242  0.99618584     0.07600
Br938      Br  0.39645290  0.58257314  0.93241214    -0.03000
C939        C  0.46256341  0.53409550  0.88714217    -0.09600
C940        C  0.44436231  0.50818802  0.86816749     0.06600
C941        C  0.46556799  0.48794240  0.84382890    -0.03400
C942        C  0.50240793  0.48582523  0.84896324    -0.07800
C943        C  0.51840051  0.50272138  0.87857643     0.05700
C944        C  0.49787007  0.53049980  0.89491067    -0.02900
Br945      Br  0.51245175  0.56528073  0.92921943    -0.02600
H946        H  0.44864088  0.55588941  0.89908857     0.09600
H947        H  0.51793672  0.47026664  0.83012150     0.07600
Br948      Br  0.44750048  0.46732801  0.80083914    -0.03000
C949        C  0.33860837  0.42916694  0.85406058    -0.09600
C950        C  0.35531870  0.40025818  0.86998804     0.06600
C951        C  0.39229666  0.40095370  0.87310193    -0.03400
C952        C  0.40999110  0.43313201  0.86822355    -0.07800
C953        C  0.39106755  0.46513862  0.86328133     0.05700
C954        C  0.35725422  0.46058480  0.84777515    -0.02900
Br955      Br  0.33881697  0.49073187  0.81147367    -0.02600
H956        H  0.31143230  0.42690799  0.84554275     0.09600
H957        H  0.43771729  0.43369393  0.87411457     0.07600
Br958      Br  0.41966949  0.36109531  0.88869283    -0.03000
C959        C  0.34854493  0.44920230  0.02183048    -0.09600
C960        C  0.36905559  0.46516798  0.04904789     0.06600
C961        C  0.35895370  0.45673331  0.08438360    -0.03400
C962        C  0.33850451  0.42660680  0.09048588    -0.07800
C963        C  0.32473982  0.40721886  0.06222753     0.05700
C964        C  0.32731691  0.42008729  0.02798563    -0.02900
Br965      Br  0.30504701  0.39760964  0.98810288    -0.02600
H966        H  0.34847411  0.45884924  0.99511585     0.09600
H967        H  0.33418763  0.41762379  0.11733067     0.07600
Br968      Br  0.37380998  0.48168006  0.12615315    -0.03000
C969        C  0.36678609  0.59195829  0.85095809    -0.09600
C970        C  0.33690327  0.59298298  0.87347984     0.06600
C971        C  0.32405629  0.56095883  0.88750693    -0.03400
C972        C  0.34546320  0.53087668  0.88559263    -0.07800
C973        C  0.37944832  0.53149674  0.86912391     0.05700
C974        C  0.38776136  0.56134948  0.84778403    -0.02900
Br975      Br  0.42545778  0.56363369  0.81322897    -0.02600
H976        H  0.37493038  0.61567549  0.83701706     0.09600
H977        H  0.33686632  0.50753478  0.89989910     0.07600
Br978      Br  0.27976674  0.55654969  0.91260243    -0.03000
C979        C  0.34252385  0.53539758  0.03630941    -0.09600
C980        C  0.37546915  0.52938175  0.05282320     0.06600
C981        C  0.38747828  0.55598124  0.07733363    -0.03400
C982        C  0.36936244  0.58827770  0.07997014    -0.07800
C983        C  0.33878420  0.59446477  0.06062554     0.05700
C984        C  0.32458045  0.56730644  0.03954644    -0.02900
Br985      Br  0.28259380  0.57235158  0.01178952    -0.02600
H986        H  0.33182118  0.51611604  0.01792116     0.09600
H987        H  0.37895184  0.60871684  0.09797496     0.07600
Br988      Br  0.42545677  0.55239505  0.11080842    -0.03000
C989        C  0.51235799  0.03247530  0.89710636    -0.09600
C990        C  0.49265901  0.00138880  0.90369446     0.06600
C991        C  0.51250262  0.96952333  0.89527137    -0.03400
C992        C  0.54958264  0.97076303  0.89303670    -0.07800
C993        C  0.56916200  0.00151658  0.90218074     0.05700
C994        C  0.54898646  0.03370469  0.90093198    -0.02900
Br995      Br  0.56599085  0.08118163  0.91053590    -0.02600
H996        H  0.50030544  0.05655988  0.88918048     0.09600
H997        H  0.56248013  0.94763508  0.88236544     0.07600
Br998      Br  0.49518043  0.92504584  0.87549371    -0.03000
C999        C  0.63370935  0.91460023  0.85952404    -0.09600
C1000       C  0.60979299  0.89276452  0.87777878     0.06600
C1001       C  0.60191084  0.90040796  0.91333007    -0.03400
C1002       C  0.60940677  0.93458243  0.92628863    -0.07800
C1003       C  0.62370479  0.96087350  0.90335901     0.05700
C1004       C  0.64253061  0.94803955  0.87309354    -0.02900
Br1005     Br  0.68141613  0.97213724  0.85035356    -0.02600
H1006       H  0.64401428  0.90640706  0.83374774     0.09600
H1007       H  0.59803950  0.94212524  0.95165538     0.07600
Br1008     Br  0.57431235  0.86898647  0.94204523    -0.03000
C1009       C  0.40717047  0.95276383  0.91108816    -0.09600
C1010       C  0.43189729  0.97544901  0.89454974     0.06600
C1011       C  0.43344528  0.97469771  0.85669017    -0.03400
C1012       C  0.41774409  0.94673171  0.83819177    -0.07800
C1013       C  0.39903143  0.92032635  0.85619945     0.05700
C1014       C  0.39089041  0.92537604  0.89231577    -0.02900
Br1015     Br  0.35725396  0.89659208  0.91750306    -0.02600
H1016       H  0.40021839  0.95593027  0.93876641     0.09600
H1017       H  0.42213657  0.94454138  0.80985445     0.07600
Br1018     Br  0.45807523  0.00917654  0.82809146    -0.03000
C1019       C  0.61357086  0.02200820  0.84641691    -0.09600
C1020       C  0.62654750  0.02618137  0.88129033     0.06600
C1021       C  0.64412739  0.05892678  0.88911785    -0.03400
C1022       C  0.63799377  0.08834969  0.86761813    -0.07800
C1023       C  0.61500472  0.08557734  0.83891802     0.05700
C1024       C  0.60704458  0.05147070  0.82553001    -0.02900
Br1025     Br  0.58497757  0.04328080  0.78066025    -0.02600
H1026       H  0.60293274  0.99662178  0.83770124     0.09600
H1027       H  0.64769086  0.11425367  0.87597331     0.07600
Br1028     Br  0.67281908  0.06899610  0.92945476    -0.03000
C1029       C  0.43330333  0.10592754  0.90001857    -0.09600
C1030       C  0.40503094  0.10273356  0.87695171     0.06600
C1031       C  0.38651149  0.07083299  0.87474287    -0.03400
C1032       C  0.40002364  0.04092691  0.89072055    -0.07800
C1033       C  0.43396998  0.04093779  0.90674265     0.05700
C1034       C  0.44679825  0.07582990  0.91658816    -0.02900
Br1035     Br  0.48199291  0.08627619  0.95198494    -0.02600
H1036       H  0.44584087  0.13160224  0.90403155     0.09600
H1037       H  0.38381195  0.01736021  0.88881278     0.07600
Br1038     Br  0.34291741  0.06660569  0.84953039    -0.03000
C1039       C  0.59063735  0.01986326  0.97034832    -0.09600
C1040       C  0.61911852  0.00947894  0.94845229     0.06600
C1041       C  0.64935137  0.99585938  0.96687273    -0.03400
C1042       C  0.64727315  0.99054835  0.00381131    -0.07800
C1043       C  0.61501902  0.99527221  0.02241234     0.05700
C1044       C  0.58564579  0.00221228  0.00114872    -0.02900
Br1045     Br  0.54408623  0.97272271  0.99943911    -0.02600
H1046       H  0.56664240  0.03105056  0.96100095     0.09600
H1047       H  0.67005257  0.98028321  0.01746048     0.07600
Br1048     Br  0.69299056  0.98119231  0.94429687    -0.03000
C1049       C  0.45881796  0.96743778  0.01362785    -0.09600
C1050       C  0.44868186  0.99729881  0.03445227     0.06600
C1051       C  0.43756448  0.02780354  0.01571928    -0.03400
C1052       C  0.43253822  0.02534576  0.97934995    -0.07800
C1053       C  0.44840921  0.99839592  0.95761975     0.05700
C1054       C  0.45942282  0.96759137  0.97648815    -0.02900
Br1055     Br  0.47114179  0.92184424  0.95683921    -0.02600
H1056       H  0.46713484  0.94343832  0.02677311     0.09600
H1057       H  0.41809766  0.04727046  0.96858512     0.07600
Br1058     Br  0.43614834  0.07660908  0.03295269    -0.03000
C1059       C  0.55194395  0.96450119  0.08919111    -0.09600
C1060       C  0.57054034  0.99272870  0.07323190     0.06600
C1061       C  0.55035956  0.02406235  0.06604013    -0.03400
C1062       C  0.51369902  0.02276792  0.06743183    -0.07800
C1063       C  0.49493117  0.99216359  0.07778653     0.05700
C1064       C  0.51527055  0.96189450  0.08773070    -0.02900
Br1065     Br  0.49925670  0.91332412  0.09210217    -0.02600
H1066       H  0.56575833  0.94228430  0.10031902     0.09600
H1067       H  0.49933783  0.04630001  0.05978643     0.07600
Br1068     Br  0.56802005  0.06847536  0.04797812    -0.03000
C1069       C  0.39559412  0.91227214  0.09557371    -0.09600
C1070       C  0.40722763  0.90524212  0.12973088     0.06600
C1071       C  0.42896619  0.92982038  0.14723744    -0.03400
C1072       C  0.44190356  0.95845005  0.12875927    -0.07800
C1073       C  0.43458147  0.96357758  0.09263323     0.05700
C1074       C  0.40754223  0.94203847  0.07736730    -0.02900
Br1075     Br  0.38063374  0.95246363  0.03580110    -0.02600
H1076       H  0.37655302  0.89471182  0.08315132     0.09600
H1077       H  0.46030149  0.97537934  0.14230705     0.07600
Br1078     Br  0.44622082  0.92471072  0.19463000    -0.03000
C1079       C  0.63804264  0.90415676  0.11147113    -0.09600
C1080       C  0.61278433  0.88142981  0.09647374     0.06600
C1081       C  0.59922051  0.88928691  0.06330176    -0.03400
C1082       C  0.60641676  0.92232955  0.04856020    -0.07800
C1083       C  0.62350988  0.94940177  0.06848936     0.05700
C1084       C  0.64447178  0.93782518  0.09711318    -0.02900
Br1085     Br  0.68395941  0.96371553  0.11599735    -0.02600
H1086       H  0.65122558  0.89663956  0.13552653     0.09600
H1087       H  0.59383031  0.92827327  0.02404068     0.07600
Br1088     Br  0.56728612  0.85769300  0.03944364    -0.03000
C1089       C  0.61725504  0.01712190  0.12288191    -0.09600
C1090       C  0.62929194  0.01632110  0.08725915     0.06600
C1091       C  0.64648271  0.04770802  0.07548093    -0.03400
C1092       C  0.63800607  0.08040242  0.09199340    -0.07800
C1093       C  0.61468555  0.08139984  0.12118909     0.05700
C1094       C  0.60872200  0.04945357  0.13944210    -0.02900
Br1095     Br  0.58821401  0.04762367  0.18606397    -0.02600
H1096       H  0.60802370  0.99289132  0.13519967     0.09600
H1097       H  0.64827070  0.10488114  0.08102912     0.07600
Br1098     Br  0.68776562  0.04750059  0.04558437    -0.03000
C1099       C  0.40293532  0.03502047  0.09242574    -0.09600
C1100       C  0.43927429  0.02687529  0.09670759     0.06600
C1101       C  0.45782700  0.04620155  0.12371442    -0.03400
C1102       C  0.44244607  0.07630960  0.13871891    -0.07800
C1103       C  0.40850570  0.08686441  0.12982917     0.05700
C1104       C  0.38787884  0.06550554  0.10775303    -0.02900
Br1105     Br  0.33975555  0.07709251  0.09729082    -0.02600
H1106       H  0.38694155  0.01917340  0.07473841     0.09600
H1107       H  0.45739722  0.09198807  0.15765029     0.07600
Br1108     Br  0.50125567  0.03366138  0.14713639    -0.03000
C1109       C  0.46716520  0.99137280  0.44452941    -0.09600
C1110       C  0.48627346  0.96909496  0.42054093     0.06600
C1111       C  0.51097196  0.98682332  0.39785989    -0.03400
C1112       C  0.51385141  0.02432232  0.39978991    -0.07800
C1113       C  0.49312553  0.04490937  0.42387273     0.05700
C1114       C  0.47791799  0.02559638  0.45111488    -0.02900
Br1115     Br  0.50037924  0.02800401  0.49556649    -0.02600
H1116       H  0.45051659  0.98017564  0.46474581     0.09600
H1117       H  0.53181026  0.03724819  0.38162354     0.07600
Br1118     Br  0.53802832  0.96577803  0.36013506    -0.03000
C1119       C  0.44228881  0.93666457  0.36805679    -0.09600
C1120       C  0.44068189  0.92837110  0.40458103     0.06600
C1121       C  0.40579806  0.92827607  0.41989587    -0.03400
C1122       C  0.37657084  0.92542812  0.39801554    -0.07800
C1123       C  0.38000030  0.92776908  0.36134279     0.05700
C1124       C  0.41315607  0.93552850  0.34641325    -0.02900
Br1125     Br  0.42186759  0.94432221  0.29701382    -0.02600
H1126       H  0.46722165  0.94301272  0.35547221     0.09600
H1127       H  0.35044123  0.92323020  0.40999212     0.07600
Br1128     Br  0.39126947  0.94178622  0.46699589    -0.03000
C1129       C  0.41634192  0.07168388  0.34651473    -0.09600
C1130       C  0.38832891  0.09254676  0.35943034     0.06600
C1131       C  0.39479127  0.11711244  0.38713011    -0.03400
C1132       C  0.42768061  0.11715873  0.40366331    -0.07800
C1133       C  0.45403972  0.09134729  0.39511486     0.05700
C1134       C  0.44933272  0.07230450  0.36240375    -0.02900
Br1135     Br  0.48580835  0.05365689  0.33137483    -0.02600
H1136       H  0.41299067  0.05560890  0.32273674     0.09600
H1137       H  0.43162469  0.13656559  0.42465770     0.07600
Br1138     Br  0.36045749  0.15156107  0.40376318    -0.03000
C1139       C  0.56682718  0.88910337  0.39687781    -0.09600
C1140       C  0.56168682  0.88487424  0.36066493     0.06600
C1141       C  0.52703138  0.87813001  0.34868715    -0.03400
C1142       C  0.49844669  0.88430126  0.37203843    -0.07800
C1143       C  0.50430465  0.90114974  0.40518552     0.05700
C1144       C  0.53808216  0.89371266  0.41951337    -0.02900
Br1145     Br  0.54329832  0.86494171  0.46066009    -0.02600
H1146       H  0.59309766  0.88717396  0.40784935     0.09600
H1147       H  0.47218145  0.87887756  0.36259611     0.07600
Br1148     Br  0.51649189  0.86423602  0.30092165    -0.03000
C1149       C  0.58407029  0.10136310  0.39678741    -0.09600
C1150       C  0.58050470  0.11242058  0.36212180     0.06600
C1151       C  0.54793407  0.12611085  0.35099536    -0.03400
C1152       C  0.51838897  0.12304867  0.37310782    -0.07800
C1153       C  0.52006785  0.10298108  0.40443464     0.05700
C1154       C  0.55445125  0.09596457  0.41789097    -0.02900
Br1155     Br  0.56513167  0.07433173  0.46185803    -0.02600
H1156       H  0.60964145  0.09284187  0.40625914     0.09600
H1157       H  0.49360516  0.13323193  0.36348302     0.07600
Br1158     Br  0.54116071  0.14629380  0.30510562    -0.03000
C1159       C  0.01590386  0.95186342  0.58796258    -0.09600
C1160       C  0.98435853  0.93767418  0.60182644     0.06600
C1161       C  0.96387690  0.96202714  0.62333323    -0.03400
C1162       C  0.96859481  0.99849860  0.61952306    -0.07800
C1163       C  0.99339877  0.01209677  0.59517058     0.05700
C1164       C  0.02008559  0.98814086  0.58294299    -0.02900
Br1165     Br  0.06366790  0.00091009  0.56029949    -0.02600
H1166       H  0.03808973  0.93525819  0.58132790     0.09600
H1167       H  0.95179398  0.01623887  0.63513600     0.07600
Br1168     Br  0.93196803  0.94994142  0.66158978    -0.03000
C1169       C  0.00750421  0.95424041  0.43829938    -0.09600
C1170       C  0.97827431  0.93512841  0.42573385     0.06600
C1171       C  0.95707935  0.95397209  0.40097244    -0.03400
C1172       C  0.95938103  0.99113927  0.39898635    -0.07800
C1173       C  0.98709838  0.01055581  0.41478495     0.05700
C1174       C  0.01382508  0.98975572  0.43085844    -0.02900
Br1175     Br  0.05893299  0.00719377  0.44688293    -0.02600
H1176       H  0.02742495  0.94146241  0.45299069     0.09600
H1177       H  0.93827747  0.00416579  0.38547867     0.07600
Br1178     Br  0.92903918  0.93316715  0.36380280    -0.03000
C1179       C  0.95194195  0.87151683  0.49575349    -0.09600
C1180       C  0.97914553  0.88842073  0.47634076     0.06600
C1181       C  0.01088092  0.89330693  0.49623012    -0.03400
C1182       C  0.00911551  0.89419247  0.53327535    -0.07800
C1183       C  0.97720622  0.88932849  0.55224552     0.05700
C1184       C  0.95145722  0.87014567  0.53235284    -0.02900
Br1185     Br  0.92135774  0.83259264  0.54947017    -0.02600
H1186       H  0.93144252  0.85662488  0.48269410     0.09600
H1187       H  0.03378814  0.89407301  0.54692526     0.07600
Br1188     Br  0.05899040  0.88853660  0.47848667    -0.03000
C1189       C  0.88480499  0.86170976  0.62616335    -0.09600
C1190       C  0.86377676  0.87720690  0.60026474     0.06600
C1191       C  0.87565496  0.90688536  0.58206869    -0.03400
C1192       C  0.91123439  0.91534312  0.58384715    -0.07800
C1193       C  0.93508489  0.89406828  0.60348332     0.05700
C1194       C  0.92052801  0.87012613  0.62848496    -0.02900
Br1195     Br  0.94565919  0.84794512  0.66620947    -0.02600
H1196       H  0.87428391  0.84022402  0.64202614     0.09600
H1197       H  0.92117275  0.93594552  0.56653264     0.07600
Br1198     Br  0.84622467  0.93170114  0.54960218    -0.03000
C1199       C  0.87376186  0.88195355  0.42697023    -0.09600
C1200       C  0.87217956  0.85210178  0.40501452     0.06600
C1201       C  0.90305372  0.83718215  0.39025105    -0.03400
C1202       C  0.93537671  0.85273291  0.39757229    -0.07800
C1203       C  0.93828624  0.88086402  0.42283841     0.05700
C1204       C  0.90610860  0.89587131  0.43671165    -0.02900
Br1205     Br  0.90301364  0.93227427  0.47228699    -0.02600
H1206       H  0.84964918  0.89313900  0.43847065     0.09600
H1207       H  0.95804527  0.84149006  0.38377952     0.07600
Br1208     Br  0.90304904  0.79546617  0.36018179    -0.03000
C1209       C  0.06263337  0.87081024  0.62126039    -0.09600
C1210       C  0.06611778  0.84313895  0.59597190     0.06600
C1211       C  0.03570635  0.82351079  0.58688732    -0.03400
C1212       C  0.00263037  0.83697388  0.59694631    -0.07800
C1213       C  0.99981765  0.87170135  0.61148090     0.05700
C1214       C  0.02924548  0.88379082  0.63077829    -0.02900
Br1215     Br  0.02540055  0.91656034  0.67017046    -0.02600
H1216       H  0.08574404  0.88265258  0.63327280     0.09600
H1217       H  0.97961321  0.82345895  0.58732298     0.07600
Br1218     Br  0.03641748  0.78113645  0.55768466    -0.03000
C1219       C  0.02656658  0.88905830  0.39096878    -0.09600
C1220       C  0.00453490  0.87284243  0.41651451     0.06600
C1221       C  0.01234776  0.83690633  0.42565804    -0.03400
C1222       C  0.04520337  0.82281282  0.41681505    -0.07800
C1223       C  0.07014284  0.84327780  0.39864864     0.05700
C1224       C  0.05972203  0.87527056  0.38292584    -0.02900
Br1225     Br  0.08930753  0.90276997  0.35185098    -0.02600
H1226       H  0.01949369  0.91389025  0.37874425     0.09600
H1227       H  0.05203120  0.79662439  0.42642158     0.07600
Br1228     Br  0.98171972  0.80522989  0.45147117    -0.03000
C1229       C  0.02114705  0.52808150  0.51896746    -0.09600
C1230       C  0.03951325  0.54748654  0.49337490     0.06600
C1231       C  0.06972282  0.52967744  0.47787372    -0.03400
C1232       C  0.07138221  0.49227362  0.47815162    -0.07800
C1233       C  0.04579768  0.47250259  0.49684038     0.05700
C1234       C  0.02609580  0.49194091  0.52305650    -0.02900
Br1235     Br  0.00390747  0.47376452  0.56495352    -0.02600
H1236       H  0.00229291  0.54042256  0.53623950     0.09600
H1237       H  0.09223572  0.47893726  0.46316425     0.07600
Br1238     Br  0.11085616  0.55293759  0.45846771    -0.03000
C1239       C  0.92746781  0.59714120  0.51767228    -0.09600
C1240       C  0.90976399  0.59481429  0.48516969     0.06600
C1241       C  0.93176454  0.59359816  0.45432596    -0.03400
C1242       C  0.96832663  0.59480233  0.45686366    -0.07800
C1243       C  0.98667907  0.59120535  0.48884327     0.05700
C1244       C  0.96448573  0.59415456  0.52028341    -0.02900
Br1245     Br  0.97960334  0.59673957  0.56910636    -0.02600
H1246       H  0.91253338  0.59977391  0.54187012     0.09600
H1247       H  0.98148650  0.59902465  0.43223048     0.07600
Br1248     Br  0.91571266  0.59168412  0.40601325    -0.03000
C1249       C  0.88117722  0.52799087  0.49859184    -0.09600
C1250       C  0.86406525  0.55008707  0.47378341     0.06600
C1251       C  0.84925255  0.53109505  0.44400134    -0.03400
C1252       C  0.85060696  0.49356261  0.44233429    -0.07800
C1253       C  0.87092481  0.47342483  0.46584567     0.05700
C1254       C  0.88457841  0.49159966  0.49565878    -0.02900
Br1255     Br  0.91228259  0.47063768  0.53270403    -0.02600
H1256       H  0.89457628  0.53930097  0.52100368     0.09600
H1257       H  0.83863723  0.48044268  0.41987055     0.07600
Br1258     Br  0.83414123  0.54816764  0.39899661    -0.03000
C1259       C  0.82715908  0.61740327  0.43563827    -0.09600
C1260       C  0.85755656  0.62028812  0.45614604     0.06600
C1261       C  0.87627996  0.65353296  0.45330000    -0.03400
C1262       C  0.87503882  0.67174338  0.42181423    -0.07800
C1263       C  0.85360359  0.65902511  0.39496019     0.05700
C1264       C  0.82563991  0.63587034  0.40372286    -0.02900
Br1265     Br  0.78606095  0.62852541  0.37330049    -0.02600
H1266       H  0.80647294  0.59885359  0.44284363     0.09600
H1267       H  0.89323261  0.69355539  0.41729807     0.07600
Br1268     Br  0.90472947  0.67608589  0.48919006    -0.03000
C1269       C  0.06592812  0.63169853  0.45072202    -0.09600
C1270       C  0.04509296  0.60024546  0.45215855     0.06600
C1271       C  0.04022686  0.58171030  0.41916313    -0.03400
C1272       C  0.04783751  0.59851321  0.38758538    -0.07800
C1273       C  0.06106385  0.63299266  0.38755508     0.05700
C1274       C  0.07252677  0.64879348  0.41906689    -0.02900
Br1275     Br  0.09741691  0.69345463  0.42074621    -0.02600
H1276       H  0.07630981  0.64462971  0.47396754     0.09600
H1277       H  0.04100147  0.58543262  0.36284931     0.07600
Br1278     Br  0.01859263  0.53604513  0.41268354    -0.03000
C1279       C  0.84770279  0.65066537  0.55879437    -0.09600
C1280       C  0.86071482  0.62804675  0.58446817     0.06600
C1281       C  0.85559206  0.59117744  0.58055324    -0.03400
C1282       C  0.84619387  0.57797191  0.54725684    -0.07800
C1283       C  0.84666511  0.60089475  0.51774902     0.05700
C1284       C  0.83764863  0.63677897  0.52646752    -0.02900
Br1285     Br  0.80319243  0.66458220  0.50182278    -0.02600
H1286       H  0.84434374  0.67894973  0.56426484     0.09600
H1287       H  0.84126508  0.54979411  0.54464530     0.07600
Br1288     Br  0.86560924  0.55791332  0.61716550    -0.03000
C1289       C  0.04154890  0.66353038  0.55584747    -0.09600
C1290       C  0.06303384  0.64669392  0.58028943     0.06600
C1291       C  0.07927944  0.61404407  0.57160007    -0.03400
C1292       C  0.06971378  0.59632940  0.54091059    -0.07800
C1293       C  0.04359619  0.61025518  0.51844997     0.05700
C1294       C  0.03200793  0.64607642  0.52486818    -0.02900
Br1295     Br  0.00226718  0.67306919  0.49400063    -0.02600
H1296       H  0.03052810  0.68971044  0.56164333     0.09600
H1297       H  0.08262628  0.57109936  0.53559497     0.07600
Br1298     Br  0.11495677  0.59208928  0.59994438    -0.03000
C1299       C  0.44833024  0.09782698  0.51583129    -0.09600
C1300       C  0.47875346  0.11104589  0.53267232     0.06600
C1301       C  0.49931231  0.13388482  0.51061834    -0.03400
C1302       C  0.49919843  0.12865173  0.47378303    -0.07800
C1303       C  0.47746829  0.10241159  0.45807669     0.05700
C1304       C  0.44768730  0.09197471  0.47931965    -0.02900
Br1305     Br  0.40664727  0.06590691  0.46333975    -0.02600
H1306       H  0.42483533  0.09123198  0.53050221     0.09600
H1307       H  0.51696650  0.14459415  0.45794097     0.07600
Br1308     Br  0.52215764  0.17671888  0.52709981    -0.03000
C1309       C  0.51307084  0.99832508  0.58825293    -0.09600
C1310       C  0.48308925  0.98047500  0.57549666     0.06600
C1311       C  0.45534506  0.00257558  0.56340151    -0.03400
C1312       C  0.45695496  0.03943852  0.56804292    -0.07800
C1313       C  0.48845955  0.05797204  0.57579923     0.05700
C1314       C  0.51643034  0.03548669  0.58879871    -0.02900
Br1315     Br  0.55736150  0.04807111  0.61622035    -0.02600
H1316       H  0.53505391  0.98327055  0.59812427     0.09600
H1317       H  0.43224556  0.05324568  0.56659020     0.07600
Br1318     Br  0.41202257  0.98538872  0.54359011    -0.03000
C1319       C  0.45472209  0.90619482  0.52097571    -0.09600
C1320       C  0.48127951  0.92630542  0.53856866     0.06600
C1321       C  0.51072576  0.93699188  0.51743373    -0.03400
C1322       C  0.50832978  0.93597913  0.48124129    -0.07800
C1323       C  0.47954569  0.92033258  0.46354111     0.05700
C1324       C  0.45669350  0.89942229  0.48422330    -0.02900
Br1325     Br  0.43032899  0.86017198  0.46477523    -0.02600
H1326       H  0.43227416  0.89542122  0.53477066     0.09600
H1327       H  0.52976538  0.94793498  0.46624727     0.07600
Br1328     Br  0.55622866  0.95316018  0.53357999    -0.03000
C1329       C  0.42906466  0.95774797  0.62041730    -0.09600
C1330       C  0.44409403  0.93050732  0.59826462     0.06600
C1331       C  0.42816094  0.89627963  0.60063790    -0.03400
C1332       C  0.39422667  0.89337079  0.61486810    -0.07800
C1333       C  0.37780996  0.92284726  0.63076789     0.05700
C1334       C  0.39586221  0.95476382  0.63506614    -0.02900
Br1335     Br  0.37617037  0.99592718  0.65901391    -0.02600
H1336       H  0.44245911  0.98250299  0.62621105     0.09600
H1337       H  0.38127734  0.86760482  0.61523262     0.07600
Br1338     Br  0.45057292  0.85163136  0.58952872    -0.03000
C1339       C  0.41788543  0.09360102  0.64450142    -0.09600
C1340       C  0.38942513  0.10933776  0.62741747     0.06600
C1341       C  0.39655081  0.13339570  0.59988323    -0.03400
C1342       C  0.43091499  0.13582208  0.58610070    -0.07800
C1343       C  0.45814993  0.11341650  0.59816718     0.05700
C1344       C  0.45215398  0.09692644  0.63137707    -0.02900
Br1345     Br  0.48812216  0.07838597  0.66110692    -0.02600
H1346       H  0.41353779  0.07836327  0.66830849     0.09600
H1347       H  0.43537710  0.15305659  0.56378188     0.07600
Br1348     Br  0.36104564  0.16206511  0.57813093    -0.03000
C1349       C  0.56201225  0.88830131  0.60969235    -0.09600
C1350       C  0.56781434  0.90783230  0.64068063     0.06600
C1351       C  0.54054967  0.92876112  0.65556029    -0.03400
C1352       C  0.51065519  0.93468423  0.63583024    -0.07800
C1353       C  0.50772390  0.92133601  0.60074086     0.05700
C1354       C  0.53190796  0.89375692  0.58997369    -0.02900
Br1355     Br  0.52856806  0.86116997  0.55040008    -0.02600
H1356       H  0.58182680  0.86947402  0.59997917     0.09600
H1357       H  0.49172260  0.95354831  0.64668555     0.07600
Br1358     Br  0.54346148  0.95377756  0.70023209    -0.03000
C1359       C  0.56880825  0.14543941  0.61634444    -0.09600
C1360       C  0.59546545  0.12599895  0.59869900     0.06600
C1361       C  0.58799093  0.10813578  0.56701356    -0.03400
C1362       C  0.55283784  0.10274997  0.55822797    -0.07800
C1363       C  0.52474441  0.11547856  0.58035069     0.05700
C1364       C  0.53339750  0.14103566  0.60718867    -0.02900
Br1365     Br  0.50085760  0.17240156  0.63196686    -0.02600
H1366       H  0.57508791  0.16128435  0.63962256     0.09600
H1367       H  0.54732270  0.08501839  0.53621657     0.07600
Br1368     Br  0.62410598  0.08368617  0.53976960    -0.03000
loop_ 
_geom_bond_atom_site_label_1 
_geom_bond_atom_site_label_2 
_geom_bond_distance 
_geom_bond_site_symmetry_2 
_ccdc_geom_bond_type 
In1           O3   2.280       .  S
In1           O4   2.377       .  S
In1          O12   2.307       .  S
In1           O6   2.249       .  S
In1           O8   2.204       .  S
In1           O9   2.304       .  S
In1          O10   2.236       .  S
In1          O13   2.273       .  S
C2            O8   1.264       .  A
C2           O10   1.256       .  A
C2         C1360   1.454       .  S
O3           C11   1.258       .  A
O4           C11   1.271       .  A
C5           O12   1.268       .  A
C5            O6   1.253       .  A
C5          C571   1.485       .  S
C7            O9   1.266       .  A
C7           O13   1.260       .  A
C7          C290   1.491       .  S
C11          C20   1.522   1_545  S
In14         O16   2.299       .  S
In14         O17   2.289       .  S
In14         O25   2.299       .  S
In14         O19   2.260       .  S
In14         O21   2.188       .  S
In14         O22   2.375       .  S
In14         O23   2.194       .  S
In14         O26   2.280       .  S
C15          O21   1.262       .  A
C15          O23   1.256       .  A
C15        C1350   1.448       .  S
O16          C24   1.256       .  A
O17          C24   1.268       .  A
C18          O25   1.273       .  A
C18          O19   1.255       .  A
C18         C152   1.491       .  S
C20          O22   1.272       .  A
C20          O26   1.258       .  A
C24         C320   1.493       .  S
In27         O29   2.289       .  S
In27         O30   2.323       .  S
In27         O38   2.304       .  S
In27         O32   2.275       .  S
In27         O34   2.237       .  S
In27         O35   2.362       .  S
In27         O36   2.219       .  S
In27         O39   2.275       .  S
C28          O34   1.255       .  A
C28          O36   1.260       .  A
C28        C1340   1.470       .  S
O29          C37   1.254       .  A
O30          C37   1.269       .  A
C31          O38   1.267       .  A
C31          O32   1.257       .  A
C31         C558   1.493       .  S
C33          O35   1.272       .  A
C33          O39   1.262       .  A
C33          C50   1.519   1_545  S
C37         C281   1.504       .  S
In40         O42   2.282       .  S
In40         O43   2.364       .  S
In40         O51   2.306       .  S
In40         O45   2.270       .  S
In40         O47   2.197       .  S
In40         O48   2.329       .  S
In40         O49   2.167       .  S
In40         O52   2.280       .  S
C41          O47   1.261       .  A
C41          O49   1.259       .  A
C41        C1333   1.425       .  S
O42          C50   1.259       .  A
O43          C50   1.273       .  A
C44          O51   1.269       .  A
C44          O45   1.252       .  A
C44         C126   1.490       .  S
C46          O48   1.274       .  A
C46          O52   1.252       .  A
C46         C303   1.502       .  S
C53        C1310   1.581       .  S
C53        C1320   1.549       .  S
C53        C1330   1.552       .  S
C53        C1353   1.545       .  S
C54        C1300   1.598       .  S
C54        C1313   1.599       .  S
C54        C1343   1.550       .  S
C54        C1363   1.540       .  S
In55         O57   2.280       .  S
In55         O58   2.374       .  S
In55         O66   2.301       .  S
In55         O60   2.262       .  S
In55         O62   2.183       .  S
In55         O63   2.309       .  S
In55         O64   2.195       .  S
In55         O67   2.276       .  S
C56          O62   1.262       .  A
C56          O64   1.262       .  A
C56        C1290   1.447       .  S
O57          C65   1.259       .  A
O58          C65   1.272       .  A
C59          O66   1.270       .  A
C59          O60   1.254       .  A
C59         C463   1.488       .  S
C61          O63   1.273       .  A
C61          O67   1.252       .  A
C61         C128   1.492       .  S
C65          C72   1.523   1_455  S
In68         O70   2.196       .  S
In68         O71   2.233       .  S
In68         O79   2.278       .  S
In68         O73   2.390       .  S
In68         O75   2.298       .  S
In68         O76   2.263       .  S
In68         O77   2.344       .  S
In68         O80   2.306       .  S
C69          O75   1.261       .  A
C69          O77   1.269       .  A
C69         C158   1.515       .  S
O70          C78   1.259       .  A
O71          C78   1.252       .  A
C72          O79   1.255       .  A
C72          O73   1.272       .  A
C74          O76   1.259       .  A
C74          O80   1.269       .  A
C74         C530   1.491       .  S
C78        C1280   1.443       .  S
In81         O83   2.295       .  S
In81         O84   2.345       .  S
In81         O92   2.307       .  S
In81         O86   2.263       .  S
In81         O88   2.189       .  S
In81         O89   2.398       .  S
In81         O90   2.191       .  S
In81         O93   2.333       .  S
C82          O88   1.263       .  A
C82          O90   1.264       .  A
C82        C1273   1.446       .  S
O83          C91   1.251       .  A
O84          C91   1.275       .  A
C85          O92   1.269       .  A
C85          O86   1.250       .  A
C85         C450   1.485       .  S
C87          O89   1.274   1_655  A
C87          O93   1.261   1_655  A
C87          C98   1.548       .  S
C91         C119   1.510       .  S
In94         O96   2.312       .  S
In94         O97   2.283       .  S
In94        O105   2.339       .  S
In94         O99   2.390       .  S
In94        O101   2.322       .  S
In94        O102   2.226       .  S
In94        O103   2.296       .  S
In94        O106   2.213       .  S
C95         O101   1.271       .  A
C95         O103   1.253       .  A
C95         C141   1.504       .  S
O96         C104   1.272       .  A
O97         C104   1.258       .  A
C98         O105   1.266       .  A
C98          O99   1.271       .  A
C100        O102   1.261       .  A
C100        O106   1.261       .  A
C100       C1263   1.457       .  S
C104        C504   1.503       .  S
C107       C1240   1.580       .  S
C107       C1250   1.591       .  S
C107       C1260   1.544       .  S
C107       C1283   1.580       .  S
C108       C1230   1.562       .  S
C108       C1243   1.600   1_455  S
C108       C1270   1.564       .  S
C108       C1293   1.540       .  S
In109       O111   2.302       .  S
In109       O112   2.329       .  S
In109       O120   2.305       .  S
In109       O114   2.260       .  S
In109       O116   2.184       .  S
In109       O117   2.369       .  S
In109       O118   2.183       .  S
In109       O121   2.305       .  S
C110        O116   1.261       .  A
C110        O118   1.262       .  A
C110       C1223   1.449       .  S
O111        C119   1.254       .  A
O112        C119   1.274       .  A
C113        O120   1.271       .  A
C113        O114   1.255       .  A
C113        C206   1.490       .  S
C115        O117   1.273       .  A
C115        O121   1.261       .  A
C115        C132   1.529       .  S
In122       O124   2.312       .  S
In122       O125   2.367       .  S
In122       O133   2.296       .  S
In122       O127   2.261       .  S
In122       O129   2.210       .  S
In122       O130   2.309       .  S
In122       O131   2.219       .  S
In122       O134   2.278       .  S
C123        O129   1.262       .  A
C123        O131   1.260       .  A
C123       C1210   1.465       .  S
O124        C132   1.263       .  A
O125        C132   1.269       .  A
C126        O133   1.270       .  A
C126        O127   1.256       .  A
C128        O130   1.271       .  A
C128        O134   1.252       .  A
In135       O137   2.311       .  S
In135       O138   2.380       .  S
In135       O146   2.306       .  S
In135       O140   2.276       .  S
In135       O142   2.194       .  S
In135       O143   2.324       .  S
In135       O144   2.187       .  S
In135       O147   2.291       .  S
C136        O142   1.265       .  A
C136        O144   1.261       .  A
C136       C1200   1.439       .  S
O137        C145   1.261       .  A
O138        C145   1.273       .  A
C139        O146   1.270       .  A
C139        O140   1.256       .  A
C139        C180   1.496       .  S
C141        O143   1.275       .  A
C141        O147   1.255       .  A
C145        C154   1.535       .  S
In148       O150   2.292       .  S
In148       O151   2.345       .  S
In148       O159   2.312       .  S
In148       O153   2.270       .  S
In148       O155   2.243       .  S
In148       O156   2.383       .  S
In148       O157   2.171       .  S
In148       O160   2.314       .  S
C149        O155   1.258       .  A
C149        O157   1.256       .  A
C149       C1190   1.442       .  S
O150        C158   1.260       .  A
O151        C158   1.268       .  A
C152        O159   1.273       .  A
C152        O153   1.251       .  A
C154        O156   1.271       .  A
C154        O160   1.261       .  A
C161       C1170   1.578       .  S
C161       C1180   1.587       .  S
C161       C1203   1.551       .  S
C161       C1220   1.537   1_655  S
C162       C1160   1.570       .  S
C162       C1183   1.592       .  S
C162       C1193   1.530       .  S
C162       C1213   1.545       .  S
In163       O165   2.260       .  S
In163       O166   2.334       .  S
In163       O174   2.313       .  S
In163       O168   2.261       .  S
In163       O170   2.211       .  S
In163       O171   2.371       .  S
In163       O172   2.214       .  S
In163       O175   2.288       .  S
C164        O170   1.261       .  A
C164        O172   1.254       .  A
C164       C1150   1.454       .  S
O165        C173   1.258       .  A
O166        C173   1.262       .  A
C167        O174   1.273       .  A
C167        O168   1.255       .  A
C167        C584   1.492       .  S
C169        O171   1.270       .  A
C169        O175   1.256       .  A
C169        C186   1.520   1_545  S
C173        C240   1.494       .  S
In176       O178   2.290       .  S
In176       O179   2.362       .  S
In176       O187   2.310       .  S
In176       O181   2.279       .  S
In176       O183   2.211       .  S
In176       O184   2.273       .  S
In176       O185   2.241       .  S
In176       O188   2.301       .  S
C177        O183   1.261       .  A
C177        O185   1.254       .  A
C177       C1140   1.465       .  S
O178        C186   1.260       .  A
O179        C186   1.269       .  A
C180        O187   1.270       .  A
C180        O181   1.255       .  A
C182        O184   1.260       .  A
C182        O188   1.261       .  A
C182        C249   1.489       .  S
In189       O191   2.316       .  S
In189       O192   2.349       .  S
In189       O200   2.304       .  S
In189       O194   2.274       .  S
In189       O196   2.238       .  S
In189       O197   2.322       .  S
In189       O198   2.226       .  S
In189       O201   2.292       .  S
C190        O196   1.258       .  A
C190        O198   1.262       .  A
C190       C1130   1.474       .  S
O191        C199   1.262       .  A
O192        C199   1.265       .  A
C193        O200   1.268       .  A
C193        O194   1.253       .  A
C193        C545   1.490       .  S
C195        O197   1.268       .  A
C195        O201   1.253       .  A
C195        C223   1.501       .  S
C199        C208   1.520   1_545  S
In202       O204   2.275       .  S
In202       O205   2.312       .  S
In202       O213   2.298       .  S
In202       O207   2.272       .  S
In202       O209   2.204       .  S
In202       O210   2.344       .  S
In202       O211   2.196       .  S
In202       O214   2.301       .  S
C203        O209   1.262       .  A
C203        O211   1.258       .  A
C203       C1123   1.459       .  S
O204        C212   1.255       .  A
O205        C212   1.272       .  A
C206        O213   1.269       .  A
C206        O207   1.255       .  A
C208        O210   1.269       .  A
C208        O214   1.261       .  A
C212        C266   1.497       .  S
C215       C1110   1.575       .  S
C215       C1120   1.565       .  S
C215       C1143   1.581       .  S
C215       C1323   1.555       .  S
C216       C1113   1.568       .  S
C216       C1133   1.572       .  S
C216       C1153   1.549       .  S
C216       C1303   1.575       .  S
In217       O219   2.314       .  S
In217       O220   2.369       .  S
In217       O228   2.318       .  S
In217       O222   2.281       .  S
In217       O224   2.225       .  S
In217       O225   2.318       .  S
In217       O226   2.173       .  S
In217       O229   2.286       .  S
C218        O224   1.264       .  A
C218        O226   1.259       .  A
C218       C1103   1.442       .  S
O219        C227   1.262       .  A
O220        C227   1.272       .  A
C221        O228   1.270       .  A
C221        O222   1.256       .  A
C221        C355   1.500       .  S
C223        O225   1.272       .  A
C223        O229   1.255       .  A
C227        C236   1.533       .  S
In230       O232   2.324       .  S
In230       O233   2.252       .  S
In230       O241   2.292       .  S
In230       O235   2.271       .  S
In230       O237   2.258       .  S
In230       O238   2.373       .  S
In230       O239   2.238       .  S
In230       O242   2.317       .  S
C231        O237   1.256       .  A
C231        O239   1.260       .  A
C231       C1093   1.474       .  S
O232        C240   1.266       .  A
O233        C240   1.257       .  A
C234        O241   1.270       .  A
C234        O235   1.264       .  A
C234        C409   1.496       .  S
C236        O238   1.269       .  A
C236        O242   1.263       .  A
In243       O245   2.289       .  S
In243       O246   2.367       .  S
In243       O254   2.297       .  S
In243       O248   2.271       .  S
In243       O250   2.240       .  S
In243       O251   2.294       .  S
In243       O252   2.245       .  S
In243       O255   2.263       .  S
C244        O250   1.262       .  A
C244        O252   1.254       .  A
C244       C1080   1.462       .  S
O245        C253   1.259       .  A
O246        C253   1.270       .  A
C247        O254   1.263       .  A
C247        O248   1.258       .  A
C247        C383   1.487       .  S
C249        O251   1.267       .  A
C249        O255   1.260       .  A
C253        C262   1.521       .  S
In256       O258   2.279       .  S
In256       O259   2.311       .  S
In256       O267   2.297       .  S
In256       O261   2.260       .  S
In256       O263   2.208       .  S
In256       O264   2.365       .  S
In256       O265   2.178       .  S
In256       O268   2.291       .  S
C257        O263   1.262       .  A
C257        O265   1.257       .  A
C257       C1070   1.450       .  S
O258        C266   1.255       .  A
O259        C266   1.272       .  A
C260        O267   1.270       .  A
C260        O261   1.254       .  A
C260        C329   1.487       .  S
C262        O264   1.271       .  A
C262        O268   1.259       .  A
C269       C1050   1.560       .  S
C269       C1063   1.548       .  S
C269       C1073   1.539       .  S
C269       C1100   1.544   1_565  S
C270       C1043   1.554       .  S
C270       C1060   1.579       .  S
C270       C1083   1.561       .  S
C270       C1090   1.556   1_565  S
In271       O273   2.296       .  S
In271       O274   2.315       .  S
In271       O282   2.301       .  S
In271       O276   2.294       .  S
In271       O278   2.229       .  S
In271       O279   2.373       .  S
In271       O280   2.198       .  S
In271       O283   2.314       .  S
C272        O278   1.260       .  A
C272        O280   1.262       .  A
C272       C1030   1.448       .  S
O273        C281   1.257       .  A
O274        C281   1.271       .  A
C275        O282   1.267       .  A
C275        O276   1.255       .  A
C275        C368   1.496       .  S
C277        O279   1.270       .  A
C277        O283   1.258       .  A
C277        C294   1.530       .  S
In284       O286   2.322       .  S
In284       O287   2.365       .  S
In284       O295   2.300       .  S
In284       O289   2.268       .  S
In284       O291   2.234       .  S
In284       O292   2.268       .  S
In284       O293   2.236       .  S
In284       O296   2.304       .  S
C285        O291   1.257       .  A
C285        O293   1.259       .  A
C285       C1023   1.474       .  S
O286        C294   1.264       .  A
O287        C294   1.267       .  A
C288        O295   1.274       .  A
C288        O289   1.260       .  A
C288        C422   1.496       .  S
C290        O292   1.257       .  A
C290        O296   1.264       .  A
In297       O299   2.317       .  S
In297       O300   2.372       .  S
In297       O308   2.302       .  S
In297       O302   2.287       .  S
In297       O304   2.199       .  S
In297       O305   2.319       .  S
In297       O306   2.217       .  S
In297       O309   2.290       .  S
C298        O304   1.262       .  A
C298        O306   1.263       .  A
C298       C1013   1.464       .  S
O299        C307   1.261       .  A
O300        C307   1.272       .  A
C301        O308   1.268       .  A
C301        O302   1.255       .  A
C301        C342   1.495       .  S
C303        O305   1.272       .  A
C303        O309   1.254       .  A
C307        C316   1.533       .  S
In310       O312   2.260       .  S
In310       O313   2.330       .  S
In310       O321   2.278       .  S
In310       O315   2.311       .  S
In310       O317   2.254       .  S
In310       O318   2.372       .  S
In310       O319   2.186       .  S
In310       O322   2.326       .  S
C311        O317   1.264       .  A
C311        O319   1.261       .  A
C311       C1000   1.459       .  S
O312        C320   1.252       .  A
O313        C320   1.270       .  A
C314        O321   1.250       .  A
C314        O315   1.268       .  A
C314        C396   1.488       .  S
C316        O318   1.267       .  A
C316        O322   1.262       .  A
C323        C990   1.598       .  S
C323       C1010   1.542   1_545  S
C323       C1033   1.591       .  S
C323       C1053   1.594   1_545  S
C324        C993   1.605       .  S
C324       C1003   1.558   1_545  S
C324       C1020   1.552       .  S
C324       C1040   1.565       .  S
In325       O327   2.275       .  S
In325       O328   2.324       .  S
In325       O336   2.301       .  S
In325       O330   2.262       .  S
In325       O332   2.197       .  S
In325       O333   2.356       .  S
In325       O334   2.182       .  S
In325       O337   2.303       .  S
C326        O332   1.263       .  A
C326        O334   1.260       .  A
C326        C983   1.449       .  S
O327        C335   1.253       .  A
O328        C335   1.274       .  A
C329        O336   1.269       .  A
C329        O330   1.253       .  A
C331        O333   1.271       .  A
C331        O337   1.260       .  A
C331        C348   1.523   1_554  S
C335        C456   1.499       .  S
In338       O340   2.314       .  S
In338       O341   2.351       .  S
In338       O349   2.323       .  S
In338       O343   2.269       .  S
In338       O345   2.211       .  S
In338       O346   2.312       .  S
In338       O347   2.223       .  S
In338       O350   2.303       .  S
C339        O345   1.259       .  A
C339        O347   1.259       .  A
C339        C970   1.467       .  S
O340        C348   1.264       .  A
O341        C348   1.266       .  A
C342        O349   1.270       .  A
C342        O343   1.252       .  A
C344        O346   1.267       .  A
C344        O350   1.252       .  A
C344        C465   1.500       .  S
In351       O353   2.303       .  S
In351       O354   2.362       .  S
In351       O362   2.310       .  S
In351       O356   2.288       .  S
In351       O358   2.189       .  S
In351       O359   2.323       .  S
In351       O360   2.197       .  S
In351       O363   2.282       .  S
C352        O358   1.264       .  A
C352        O360   1.260       .  A
C352        C963   1.434       .  S
O353        C361   1.262       .  A
O354        C361   1.272       .  A
C355        O362   1.270       .  A
C355        O356   1.257       .  A
C357        O359   1.272       .  A
C357        O363   1.253       .  A
C357        C439   1.499       .  S
C361        C370   1.527   1_554  S
In364       O366   2.295       .  S
In364       O367   2.328       .  S
In364       O375   2.323       .  S
In364       O369   2.263       .  S
In364       O371   2.235       .  S
In364       O372   2.371       .  S
In364       O373   2.236       .  S
In364       O376   2.310       .  S
C365        O371   1.257       .  A
C365        O373   1.258       .  A
C365        C950   1.467       .  S
O366        C374   1.260       .  A
O367        C374   1.264       .  A
C368        O375   1.273       .  A
C368        O369   1.254       .  A
C370        O372   1.267       .  A
C370        O376   1.260       .  A
C374        C482   1.505       .  S
C377        C930   1.610       .  S
C377        C940   1.561       .  S
C377        C953   1.576       .  S
C377        C973   1.542       .  S
C378        C920   1.552       .  S
C378        C933   1.575   1_554  S
C378        C960   1.549       .  S
C378        C980   1.551       .  S
In379       O381   2.311       .  S
In379       O382   2.359       .  S
In379       O390   2.270       .  S
In379       O384   2.300       .  S
In379       O386   2.227       .  S
In379       O387   2.294       .  S
In379       O388   2.244       .  S
In379       O391   2.290       .  S
C380        O386   1.256       .  A
C380        O388   1.259       .  A
C380        C913   1.474       .  S
O381        C389   1.258       .  A
O382        C389   1.264       .  A
C383        O390   1.256       .  A
C383        O384   1.265       .  A
C385        O387   1.272       .  A
C385        O391   1.259       .  A
C385        C506   1.497       .  S
C389        C398   1.520   1_554  S
In392       O394   2.282       .  S
In392       O395   2.327       .  S
In392       O403   2.259       .  S
In392       O397   2.301       .  S
In392       O399   2.204       .  S
In392       O400   2.354       .  S
In392       O401   2.174       .  S
In392       O404   2.308       .  S
C393        O399   1.259       .  A
C393        O401   1.260       .  A
C393        C900   1.429       .  S
O394        C402   1.251       .  A
O395        C402   1.272       .  A
C396        O403   1.253       .  A
C396        O397   1.272       .  A
C398        O400   1.266       .  A
C398        O404   1.260       .  A
C402        C536   1.498       .  S
In405       O407   2.261       .  S
In405       O408   2.322       .  S
In405       O416   2.301       .  S
In405       O410   2.300       .  S
In405       O412   2.234       .  S
In405       O413   2.377       .  S
In405       O414   2.197       .  S
In405       O417   2.287       .  S
C406        O412   1.257       .  A
C406        O414   1.255       .  A
C406        C890   1.455       .  S
O407        C415   1.259       .  A
O408        C415   1.274       .  A
C409        O416   1.261       .  A
C409        O410   1.257       .  A
C411        O413   1.272   1_556  A
C411        O417   1.258   1_556  A
C411        C428   1.524       .  S
C415        C497   1.501       .  S
In418       O420   2.289       .  S
In418       O421   2.375       .  S
In418       O429   2.317       .  S
In418       O423   2.277       .  S
In418       O425   2.229       .  S
In418       O426   2.315       .  S
In418       O427   2.185       .  S
In418       O430   2.317       .  S
C419        O425   1.260       .  A
C419        O427   1.256       .  A
C419        C880   1.461       .  S
O420        C428   1.259       .  A
O421        C428   1.272       .  A
C422        O429   1.271       .  A
C422        O423   1.253       .  A
C424        O426   1.264       .  A
C424        O430   1.258       .  A
C424        C519   1.508       .  S
C431        C870   1.561       .  S
C431        C883   1.553       .  S
C431        C903   1.538       .  S
C431        C943   1.570       .  S
C432        C873   1.588       .  S
C432        C893   1.536       .  S
C432        C910   1.573       .  S
C432        C923   1.564       .  S
In433       O435   2.306       .  S
In433       O436   2.371       .  S
In433       O444   2.293       .  S
In433       O438   2.264       .  S
In433       O440   2.232       .  S
In433       O441   2.311       .  S
In433       O442   2.222       .  S
In433       O445   2.296       .  S
C434        O440   1.259       .  A
C434        O442   1.261       .  A
C434        C860   1.469       .  S
O435        C443   1.260       .  A
O436        C443   1.268       .  A
C437        O444   1.265       .  A
C437        O438   1.256       .  A
C437        C631   1.485       .  S
C439        O441   1.270       .  A
C439        O445   1.254       .  A
C443        C452   1.526       .  S
In446       O448   2.288       .  S
In446       O449   2.314       .  S
In446       O457   2.297       .  S
In446       O451   2.255       .  S
In446       O453   2.184       .  S
In446       O454   2.370       .  S
In446       O455   2.189       .  S
In446       O458   2.300       .  S
C447        O453   1.261       .  A
C447        O455   1.259       .  A
C447        C853   1.449       .  S
O448        C456   1.253       .  A
O449        C456   1.271       .  A
C450        O457   1.271       .  A
C450        O451   1.252       .  A
C452        O454   1.272       .  A
C452        O458   1.260       .  A
In459       O461   2.308       .  S
In459       O462   2.381       .  S
In459       O470   2.304       .  S
In459       O464   2.271       .  S
In459       O466   2.209       .  S
In459       O467   2.330       .  S
In459       O468   2.192       .  S
In459       O471   2.275       .  S
C460        O466   1.262       .  A
C460        O468   1.261       .  A
C460        C840   1.441       .  S
O461        C469   1.258       .  A
O462        C469   1.271       .  A
C463        O470   1.268       .  A
C463        O464   1.252       .  A
C465        O467   1.273       .  A
C465        O471   1.253       .  A
C469        C478   1.531       .  S
In472       O474   2.321       .  S
In472       O475   2.288       .  S
In472       O483   2.320       .  S
In472       O477   2.265       .  S
In472       O479   2.218       .  S
In472       O480   2.377       .  S
In472       O481   2.232       .  S
In472       O484   2.313       .  S
C473        O479   1.265       .  A
C473        O481   1.256       .  A
C473        C830   1.455       .  S
O474        C482   1.267       .  A
O475        C482   1.260       .  A
C476        O483   1.269       .  A
C476        O477   1.250       .  A
C476        C601   1.488       .  S
C478        O480   1.269       .  A
C478        O484   1.261       .  A
C485        C810   1.570       .  S
C485        C820   1.585       .  S
C485        C833   1.552       .  S
C485        C863   1.548   1_556  S
C486        C800   1.584       .  S
C486        C823   1.589       .  S
C486        C843   1.569       .  S
C486        C850   1.532   1_556  S
In487       O489   2.316       .  S
In487       O490   2.296       .  S
In487       O498   2.310       .  S
In487       O492   2.279       .  S
In487       O494   2.221       .  S
In487       O495   2.365       .  S
In487       O496   2.226       .  S
In487       O499   2.304       .  S
C488        O494   1.258       .  A
C488        O496   1.258       .  A
C488        C790   1.470       .  S
O489        C497   1.258       .  A
O490        C497   1.264       .  A
C491        O498   1.272       .  A
C491        O492   1.258       .  A
C491        C638   1.501       .  S
C493        O495   1.269       .  A
C493        O499   1.261       .  A
C493        C510   1.525       .  S
In500       O502   2.301       .  S
In500       O503   2.364       .  S
In500       O511   2.291       .  S
In500       O505   2.328       .  S
In500       O507   2.209       .  S
In500       O508   2.328       .  S
In500       O509   2.214       .  S
In500       O512   2.274       .  S
C501        O507   1.264       .  A
C501        O509   1.259       .  A
C501        C780   1.464       .  S
O502        C510   1.261       .  A
O503        C510   1.271       .  A
C504        O511   1.253       .  A
C504        O505   1.269       .  A
C506        O508   1.271       .  A
C506        O512   1.252       .  A
In513       O515   2.299       .  S
In513       O516   2.384       .  S
In513       O524   2.288       .  S
In513       O518   2.297       .  S
In513       O520   2.237       .  S
In513       O521   2.329       .  S
In513       O522   2.227       .  S
In513       O525   2.290       .  S
C514        O520   1.262       .  A
C514        O522   1.255       .  A
C514        C770   1.463       .  S
O515        C523   1.260       .  A
O516        C523   1.270       .  A
C517        O524   1.259       .  A
C517        O518   1.264       .  A
C517        C612   1.495       .  S
C519        O521   1.271       .  A
C519        O525   1.258       .  A
C523        C532   1.530       .  S
In526       O528   2.283       .  S
In526       O529   2.311       .  S
In526       O537   2.271       .  S
In526       O531   2.306       .  S
In526       O533   2.218       .  S
In526       O534   2.391       .  S
In526       O535   2.202       .  S
In526       O538   2.294       .  S
C527        O533   1.260       .  A
C527        O535   1.257       .  A
C527        C760   1.448       .  S
O528        C536   1.255       .  A
O529        C536   1.273       .  A
C530        O537   1.258       .  A
C530        O531   1.265       .  A
C532        O534   1.273       .  A
C532        O538   1.256       .  A
C539        C750   1.575       .  S
C539        C773   1.540       .  S
C539        C793   1.561       .  S
C539        C813   1.568       .  S
C540        C753   1.591       .  S
C540        C763   1.563       .  S
C540        C783   1.548   1_556  S
C540        C803   1.574       .  S
In541       O543   2.308       .  S
In541       O544   2.374       .  S
In541       O552   2.313       .  S
In541       O546   2.275       .  S
In541       O548   2.230       .  S
In541       O549   2.329       .  S
In541       O550   2.193       .  S
In541       O553   2.299       .  S
C542        O548   1.262       .  A
C542        O550   1.260       .  A
C542        C740   1.467       .  S
O543        C551   1.259       .  A
O544        C551   1.270       .  A
C545        O552   1.267       .  A
C545        O546   1.251       .  A
C547        O549   1.268       .  A
C547        O553   1.252       .  A
C547        C622   1.503       .  S
C551        C560   1.528       .  S
In554       O556   2.271       .  S
In554       O557   2.295       .  S
In554       O565   2.296       .  S
In554       O559   2.285       .  S
In554       O561   2.237       .  S
In554       O562   2.367       .  S
In554       O563   2.209       .  S
In554       O566   2.305       .  S
C555        O561   1.259       .  A
C555        O563   1.259       .  A
C555        C730   1.463       .  S
O556        C564   1.250       .  A
O557        C564   1.270       .  A
C558        O565   1.262       .  A
C558        O559   1.260       .  A
C560        O562   1.270       .  A
C560        O566   1.262       .  A
C564        C596   1.482       .  S
In567       O569   2.288       .  S
In567       O570   2.364       .  S
In567       O578   2.281       .  S
In567       O572   2.294       .  S
In567       O574   2.249       .  S
In567       O575   2.316       .  S
In567       O576   2.209       .  S
In567       O579   2.257       .  S
C568        O574   1.260       .  A
C568        O576   1.258       .  A
C568        C720   1.456       .  S
O569        C577   1.258       .  A
O570        C577   1.267       .  A
C571        O578   1.262       .  A
C571        O572   1.255       .  A
C573        O575   1.271       .  A
C573        O579   1.254       .  A
C573        C614   1.491       .  S
C577        C586   1.518       .  S
In580       O582   2.294       .  S
In580       O583   2.297       .  S
In580       O591   2.299       .  S
In580       O585   2.286       .  S
In580       O587   2.229       .  S
In580       O588   2.361       .  S
In580       O589   2.200       .  S
In580       O592   2.292       .  S
C581        O587   1.261       .  A
C581        O589   1.259       .  A
C581        C713   1.445       .  S
O582        C590   1.255       .  A
O583        C590   1.269       .  A
C584        O591   1.267       .  A
C584        O585   1.254       .  A
C586        O588   1.270       .  A
C586        O592   1.260       .  A
C590        C644   1.496       .  S
C593        C700   1.568       .  S
C593        C710   1.561       .  S
C593        C743   1.554   1_655  S
C593       C1173   1.560       .  S
C594        C703   1.582       .  S
C594        C723   1.589       .  S
C594        C733   1.538   1_655  S
C594       C1163   1.540       .  S
In595       O597   2.180       .  S
In595       O598   2.195       .  S
In595       O606   2.305       .  S
In595       O600   2.369       .  S
In595       O602   2.306       .  S
In595       O603   2.287       .  S
In595       O604   2.254       .  S
In595       O607   2.301       .  S
C596        O602   1.270       .  A
C596        O604   1.248       .  A
O597        C605   1.257       .  A
O598        C605   1.265       .  A
C599        O606   1.257       .  A
C599        O600   1.268       .  A
C599        C618   1.520   1_455  S
C601        O603   1.250       .  A
C601        O607   1.266       .  A
C605        C690   1.430       .  S
In608       O610   2.296       .  S
In608       O611   2.363       .  S
In608       O619   2.290       .  S
In608       O613   2.288       .  S
In608       O615   2.251       .  S
In608       O616   2.292       .  S
In608       O617   2.232       .  S
In608       O620   2.291       .  S
C609        O615   1.261       .  A
C609        O617   1.256       .  A
C609        C680   1.479       .  S
O610        C618   1.259       .  A
O611        C618   1.268       .  A
C612        O619   1.265       .  A
C612        O613   1.263       .  A
C614        O616   1.267       .  A
C614        O620   1.254       .  A
In621       O623   2.284       .  S
In621       O624   2.292       .  S
In621       O632   2.279       .  S
In621       O626   2.374       .  S
In621       O628   2.324       .  S
In621       O629   2.248       .  S
In621       O630   2.287       .  S
In621       O633   2.198       .  S
C622        O628   1.273       .  A
C622        O630   1.254       .  A
O623        C631   1.258       .  A
O624        C631   1.258       .  A
C625        O632   1.257   1_655  A
C625        O626   1.271   1_655  A
C625        C640   1.519       .  S
C627        O629   1.260       .  A
C627        O633   1.261       .  A
C627        C673   1.458       .  S
In634       O636   2.260       .  S
In634       O637   2.335       .  S
In634       O645   2.319       .  S
In634       O639   2.299       .  S
In634       O641   2.228       .  S
In634       O642   2.379       .  S
In634       O643   2.185       .  S
In634       O646   2.286       .  S
C635        O641   1.263       .  A
C635        O643   1.258       .  A
C635        C663   1.448       .  S
O636        C644   1.250       .  A
O637        C644   1.273       .  A
C638        O645   1.264       .  A
C638        O639   1.253       .  A
C640        O642   1.269       .  A
C640        O646   1.256       .  A
C647        C653   1.564   1_455  S
C647        C670   1.563       .  S
C647        C693   1.531       .  S
C647       C1233   1.569       .  S
C648        C650   1.581       .  S
C648        C660   1.550       .  S
C648        C683   1.573       .  S
C648       C1253   1.546       .  S
C649        C650   1.413       .  A
C649        C654   1.403       .  A
C649        H656   1.071       .  S
C650        C651   1.418       .  A
C651        C652   1.376       .  A
C651       Br658   1.918       .  S
C652        C653   1.409       .  A
C652        H657   1.072       .  S
C653        C654   1.427       .  A
C654       Br655   1.919   1_655  S
C659        C660   1.418       .  A
C659        C664   1.380       .  A
C659        H666   1.067       .  S
C660        C661   1.419       .  A
C661        C662   1.395       .  A
C661       Br668   1.920       .  S
C662        C663   1.401       .  A
C662        H667   1.084       .  S
C663        C664   1.393       .  A
C664       Br665   1.925       .  S
C669        C670   1.422       .  A
C669        C674   1.391       .  A
C669        H676   1.079       .  S
C670        C671   1.440       .  A
C671        C672   1.392       .  A
C671       Br678   1.932       .  S
C672        C673   1.391       .  A
C672        H677   1.085       .  S
C673        C674   1.395       .  A
C674       Br675   1.919       .  S
C679        C680   1.400       .  A
C679        C684   1.399       .  A
C679        H686   1.083       .  S
C680        C681   1.411       .  A
C681        C682   1.396       .  A
C681       Br688   1.921       .  S
C682        C683   1.409       .  A
C682        H687   1.079       .  S
C683        C684   1.431       .  A
C684       Br685   1.930       .  S
C689        C690   1.387       .  A
C689        C694   1.382       .  A
C689        H696   1.086       .  S
C690        C691   1.390       .  A
C691        C692   1.384       .  A
C691       Br698   1.919       .  S
C692        C693   1.423       .  A
C692        H697   1.084       .  S
C693        C694   1.436       .  A
C694       Br695   1.928   1_455  S
C699        C700   1.408   1_455  A
C699        C704   1.396       .  A
C699        H706   1.077       .  S
C700        C701   1.413       .  A
C701        C702   1.382       .  A
C701       Br708   1.910       .  S
C702        C703   1.402       .  A
C702        H707   1.073       .  S
C703        C704   1.441   1_655  A
C704       Br705   1.929       .  S
C709        C710   1.421       .  A
C709        C714   1.374       .  A
C709        H716   1.079       .  S
C710        C711   1.429       .  A
C711        C712   1.399       .  A
C711       Br718   1.921       .  S
C712        C713   1.394       .  A
C712        H717   1.084       .  S
C713        C714   1.392       .  A
C714       Br715   1.920       .  S
C719        C720   1.398       .  A
C719        C724   1.395       .  A
C719        H726   1.084       .  S
C720        C721   1.395       .  A
C721        C722   1.393       .  A
C721       Br728   1.919       .  S
C722        C723   1.421       .  A
C722        H727   1.070       .  S
C723        C724   1.426       .  A
C724       Br725   1.926       .  S
C729        C730   1.401       .  A
C729        C734   1.396       .  A
C729        H736   1.083       .  S
C730        C731   1.404       .  A
C731        C732   1.384       .  A
C731       Br738   1.923       .  S
C732        C733   1.418       .  A
C732        H737   1.083   1_455  S
C733        C734   1.426       .  A
C734       Br735   1.925       .  S
C739        C740   1.405       .  A
C739        C744   1.402       .  A
C739        H746   1.084       .  S
C740        C741   1.402       .  A
C741        C742   1.379       .  A
C741       Br748   1.927       .  S
C742        C743   1.417       .  A
C742        H747   1.078   1_455  S
C743        C744   1.426       .  A
C744       Br745   1.928       .  S
C749        C750   1.414       .  A
C749        C754   1.391   1_556  A
C749        H756   1.082   1_556  S
C750        C751   1.431       .  A
C751        C752   1.401       .  A
C751       Br758   1.924       .  S
C752        C753   1.415       .  A
C752        H757   1.077       .  S
C753        C754   1.434   1_556  A
C754       Br755   1.935       .  S
C759        C760   1.386       .  A
C759        C764   1.385       .  A
C759        H766   1.085       .  S
C760        C761   1.399       .  A
C761        C762   1.389       .  A
C761       Br768   1.921       .  S
C762        C763   1.420       .  A
C762        H767   1.079       .  S
C763        C764   1.435       .  A
C764       Br765   1.905       .  S
C769        C770   1.401       .  A
C769        C774   1.396       .  A
C769        H776   1.084       .  S
C770        C771   1.399       .  A
C771        C772   1.392       .  A
C771       Br778   1.918       .  S
C772        C773   1.418       .  A
C772        H777   1.079       .  S
C773        C774   1.423       .  A
C774       Br775   1.925       .  S
C779        C780   1.399       .  A
C779        C784   1.390       .  A
C779        H786   1.084       .  S
C780        C781   1.408       .  A
C781        C782   1.390       .  A
C781       Br788   1.923       .  S
C782        C783   1.418       .  A
C782        H787   1.083   1_554  S
C783        C784   1.419       .  A
C784       Br785   1.913       .  S
C789        C790   1.399       .  A
C789        C794   1.393   1_554  A
C789        H796   1.084       .  S
C790        C791   1.406       .  A
C791        C792   1.391       .  A
C791       Br798   1.923       .  S
C792        C793   1.418   1_554  A
C792        H797   1.073       .  S
C793        C794   1.427       .  A
C794       Br795   1.915       .  S
C799        C800   1.426       .  A
C799        C804   1.399   1_455  A
C799        H806   1.079       .  S
C800        C801   1.421   1_456  A
C801        C802   1.396       .  A
C801       Br808   1.905   1_655  S
C802        C803   1.403   1_554  A
C802        H807   1.057       .  S
C803        C804   1.426       .  A
C804       Br805   1.933       .  S
C809        C810   1.404   1_655  A
C809        C814   1.368       .  A
C809        H816   1.064   1_655  S
C810        C811   1.432   1_455  A
C811        C812   1.410       .  A
C811       Br818   1.916   1_655  S
C812        C813   1.415       .  A
C812        H817   1.083       .  S
C813        C814   1.404       .  A
C814       Br815   1.893       .  S
C819        C820   1.411   1_554  A
C819        C824   1.395       .  A
C819        H826   1.079       .  S
C820        C821   1.425       .  A
C821        C822   1.396       .  A
C821       Br828   1.921       .  S
C822        C823   1.413       .  A
C822        H827   1.079       .  S
C823        C824   1.432   1_556  A
C824       Br825   1.933       .  S
C829        C830   1.400       .  A
C829        C834   1.401       .  A
C829        H836   1.084       .  S
C830        C831   1.393       .  A
C831        C832   1.382       .  A
C831       Br838   1.921       .  S
C832        C833   1.421       .  A
C832        H837   1.082       .  S
C833        C834   1.431       .  A
C834       Br835   1.928       .  S
C839        C840   1.387       .  A
C839        C844   1.387       .  A
C839        H846   1.085       .  S
C840        C841   1.394       .  A
C841        C842   1.384       .  A
C841       Br848   1.921       .  S
C842        C843   1.424       .  A
C842        H847   1.080       .  S
C843        C844   1.429       .  A
C844       Br845   1.909       .  S
C849        C850   1.419       .  A
C849        C854   1.379       .  A
C849        H856   1.083   1_554  S
C850        C851   1.417       .  A
C851        C852   1.388       .  A
C851       Br858   1.915       .  S
C852        C853   1.400       .  A
C852        H857   1.084       .  S
C853        C854   1.402       .  A
C854       Br855   1.924       .  S
C859        C860   1.398       .  A
C859        C864   1.398       .  A
C859        H866   1.084       .  S
C860        C861   1.403       .  A
C861        C862   1.389       .  A
C861       Br868   1.923       .  S
C862        C863   1.417       .  A
C862        H867   1.079   1_554  S
C863        C864   1.432       .  A
C864       Br865   1.923       .  S
C869        C870   1.412       .  A
C869        C874   1.402       .  A
C869        H876   1.081       .  S
C870        C871   1.398       .  A
C871        C872   1.386       .  A
C871       Br878   1.893       .  S
C872        C873   1.421   1_556  A
C872        H877   1.079       .  S
C873        C874   1.430   1_554  A
C874       Br875   1.913   1_556  S
C879        C880   1.395       .  A
C879        C884   1.387       .  A
C879        H886   1.084       .  S
C880        C881   1.398       .  A
C881        C882   1.386       .  A
C881       Br888   1.924       .  S
C882        C883   1.418       .  A
C882        H887   1.070       .  S
C883        C884   1.437       .  A
C884       Br885   1.932       .  S
C889        C890   1.400       .  A
C889        C894   1.391       .  A
C889        H896   1.084       .  S
C890        C891   1.400       .  A
C891        C892   1.384       .  A
C891       Br898   1.921       .  S
C892        C893   1.418       .  A
C892        H897   1.080       .  S
C893        C894   1.419       .  A
C894       Br895   1.921       .  S
C899        C900   1.394       .  A
C899        C904   1.391       .  A
C899        H906   1.084       .  S
C900        C901   1.387       .  A
C901        C902   1.373       .  A
C901       Br908   1.925       .  S
C902        C903   1.424       .  A
C902        H907   1.072       .  S
C903        C904   1.425       .  A
C904       Br905   1.923       .  S
C909        C910   1.419       .  A
C909        C914   1.392       .  A
C909        H916   1.081       .  S
C910        C911   1.418       .  A
C911        C912   1.398       .  A
C911       Br918   1.918       .  S
C912        C913   1.402       .  A
C912        H917   1.084       .  S
C913        C914   1.409       .  A
C914       Br915   1.924       .  S
C919        C920   1.415       .  A
C919        C924   1.381       .  A
C919        H926   1.081       .  S
C920        C921   1.432       .  A
C921        C922   1.395       .  A
C921       Br928   1.927       .  S
C922        C923   1.410       .  A
C922        H927   1.079       .  S
C923        C924   1.420       .  A
C924       Br925   1.928       .  S
C929        C930   1.417       .  A
C929        C934   1.394       .  A
C929        H936   1.055       .  S
C930        C931   1.451       .  A
C931        C932   1.391       .  A
C931       Br938   1.939       .  S
C932        C933   1.403       .  A
C932        H937   1.080       .  S
C933        C934   1.410       .  A
C934       Br935   1.926       .  S
C939        C940   1.389       .  A
C939        C944   1.377       .  A
C939        H946   1.063       .  S
C940        C941   1.422       .  A
C941        C942   1.411       .  A
C941       Br948   1.924       .  S
C942        C943   1.421       .  A
C942        H947   1.080       .  S
C943        C944   1.426       .  A
C944       Br945   1.914       .  S
C949        C950   1.401       .  A
C949        C954   1.396       .  A
C949        H956   1.084       .  S
C950        C951   1.404       .  A
C951        C952   1.394       .  A
C951       Br958   1.920       .  S
C952        C953   1.412       .  A
C952        H957   1.074       .  S
C953        C954   1.423       .  A
C954       Br955   1.927       .  S
C959        C960   1.423       .  A
C959        C964   1.377       .  A
C959        H966   1.078   1_554  S
C960        C961   1.424       .  A
C961        C962   1.391       .  A
C961       Br968   1.915       .  S
C962        C963   1.391       .  A
C962        H967   1.084       .  S
C963        C964   1.390       .  A
C964       Br965   1.922   1_554  S
C969        C970   1.405       .  A
C969        C974   1.396       .  A
C969        H976   1.084       .  S
C970        C971   1.405       .  A
C971        C972   1.387       .  A
C971       Br978   1.921       .  S
C972        C973   1.420       .  A
C972        H977   1.084       .  S
C973        C974   1.423       .  A
C974       Br975   1.922       .  S
C979        C980   1.420       .  A
C979        C984   1.377       .  A
C979        H986   1.079       .  S
C980        C981   1.431       .  A
C981        C982   1.391       .  A
C981       Br988   1.933       .  S
C982        C983   1.397       .  A
C982        H987   1.084       .  S
C983        C984   1.397       .  A
C984       Br985   1.925       .  S
C989        C990   1.408       .  A
C989        C994   1.395       .  A
C989        H996   1.060       .  S
C990        C991   1.439   1_545  A
C991        C992   1.404       .  A
C991       Br998   1.937       .  S
C992        C993   1.413   1_565  A
C992        H997   1.065       .  S
C993        C994   1.428       .  A
C994       Br995   1.926       .  S
C999       C1000   1.402       .  A
C999       C1004   1.391       .  A
C999       H1006   1.084       .  S
C1000      C1001   1.398       .  A
C1001      C1002   1.397       .  A
C1001     Br1008   1.915       .  S
C1002      C1003   1.425       .  A
C1002      H1007   1.079       .  S
C1003      C1004   1.416       .  A
C1004     Br1005   1.926       .  S
C1009      C1010   1.411       .  A
C1009      C1014   1.390       .  A
C1009      H1016   1.080       .  S
C1010      C1011   1.431       .  A
C1011      C1012   1.391       .  A
C1011     Br1018   1.930   1_565  S
C1012      C1013   1.398       .  A
C1012      H1017   1.084       .  S
C1013      C1014   1.405       .  A
C1014     Br1015   1.921       .  S
C1019      C1020   1.420       .  A
C1019      C1024   1.391       .  A
C1019      H1026   1.083   1_545  S
C1020      C1021   1.427       .  A
C1021      C1022   1.401       .  A
C1021     Br1028   1.917       .  S
C1022      C1023   1.402       .  A
C1022      H1027   1.084       .  S
C1023      C1024   1.404       .  A
C1024     Br1025   1.922       .  S
C1029      C1030   1.393       .  A
C1029      C1034   1.398       .  A
C1029      H1036   1.084       .  S
C1030      C1031   1.390       .  A
C1031      C1032   1.382       .  A
C1031     Br1038   1.921       .  S
C1032      C1033   1.426       .  A
C1032      H1037   1.079       .  S
C1033      C1034   1.442       .  A
C1034     Br1035   1.937       .  S
C1039      C1040   1.400       .  A
C1039      C1044   1.359   1_556  A
C1039      H1046   1.065       .  S
C1040      C1041   1.443   1_545  A
C1041      C1042   1.414   1_556  A
C1041     Br1048   1.922       .  S
C1042      C1043   1.408       .  A
C1042      H1047   1.083       .  S
C1043      C1044   1.406   1_565  A
C1044     Br1045   1.925   1_544  S
C1049      C1050   1.409       .  A
C1049      C1054   1.404   1_554  A
C1049      H1056   1.082       .  S
C1050      C1051   1.420   1_565  A
C1051      C1052   1.392   1_554  A
C1051     Br1058   1.934       .  S
C1052      C1053   1.419   1_545  A
C1052      H1057   1.074       .  S
C1053      C1054   1.431       .  A
C1054     Br1055   1.908       .  S
C1059      C1060   1.410       .  A
C1059      C1064   1.391       .  A
C1059      H1066   1.076       .  S
C1060      C1061   1.431   1_565  A
C1061      C1062   1.387       .  A
C1061     Br1068   1.927       .  S
C1062      C1063   1.408   1_545  A
C1062      H1067   1.080       .  S
C1063      C1064   1.427       .  A
C1064     Br1065   1.930       .  S
C1069      C1070   1.398       .  A
C1069      C1074   1.393       .  A
C1069      H1076   1.084       .  S
C1070      C1071   1.401       .  A
C1071      C1072   1.376       .  A
C1071     Br1078   1.927       .  S
C1072      C1073   1.413       .  A
C1072      H1077   1.073       .  S
C1073      C1074   1.427       .  A
C1074     Br1075   1.928       .  S
C1079      C1080   1.402       .  A
C1079      C1084   1.402       .  A
C1079      H1086   1.084       .  S
C1080      C1081   1.397       .  A
C1081      C1082   1.392       .  A
C1081     Br1088   1.919       .  S
C1082      C1083   1.418       .  A
C1082      H1087   1.074       .  S
C1083      C1084   1.422       .  A
C1084     Br1085   1.923       .  S
C1089      C1090   1.415       .  A
C1089      C1094   1.392       .  A
C1089      H1096   1.083   1_545  S
C1090      C1091   1.420       .  A
C1091      C1092   1.402       .  A
C1091     Br1098   1.913       .  S
C1092      C1093   1.403       .  A
C1092      H1097   1.083       .  S
C1093      C1094   1.408       .  A
C1094     Br1095   1.917       .  S
C1099      C1100   1.418       .  A
C1099      C1104   1.391       .  A
C1099      H1106   1.080       .  S
C1100      C1101   1.435       .  A
C1101      C1102   1.380       .  A
C1101     Br1108   1.936       .  S
C1102      C1103   1.389       .  A
C1102      H1107   1.085       .  S
C1103      C1104   1.396       .  A
C1104     Br1105   1.917       .  S
C1109      C1110   1.414       .  A
C1109      C1114   1.368   1_565  A
C1109      H1116   1.074       .  S
C1110      C1111   1.430       .  A
C1111      C1112   1.412   1_565  A
C1111     Br1118   1.904       .  S
C1112      C1113   1.412       .  A
C1112      H1117   1.080       .  S
C1113      C1114   1.387       .  A
C1114     Br1115   1.894       .  S
C1119      C1120   1.420       .  A
C1119      C1124   1.381       .  A
C1119      H1126   1.078       .  S
C1120      C1121   1.432       .  A
C1121      C1122   1.393       .  A
C1121     Br1128   1.917       .  S
C1122      C1123   1.395       .  A
C1122      H1127   1.084       .  S
C1123      C1124   1.400       .  A
C1124     Br1125   1.925       .  S
C1129      C1130   1.393       .  A
C1129      C1134   1.392       .  A
C1129      H1136   1.084       .  S
C1130      C1131   1.409       .  A
C1131      C1132   1.399       .  A
C1131     Br1138   1.922       .  S
C1132      C1133   1.418       .  A
C1132      H1137   1.081       .  S
C1133      C1134   1.432       .  A
C1134     Br1135   1.921       .  S
C1139      C1140   1.392       .  A
C1139      C1144   1.382       .  A
C1139      H1146   1.084       .  S
C1140      C1141   1.414       .  A
C1141      C1142   1.402       .  A
C1141     Br1148   1.920       .  S
C1142      C1143   1.416       .  A
C1142      H1147   1.078       .  S
C1143      C1144   1.422       .  A
C1144     Br1145   1.918       .  S
C1149      C1150   1.388       .  A
C1149      C1154   1.382       .  A
C1149      H1156   1.084       .  S
C1150      C1151   1.405       .  A
C1151      C1152   1.391       .  A
C1151     Br1158   1.923       .  S
C1152      C1153   1.414       .  A
C1152      H1157   1.080       .  S
C1153      C1154   1.427       .  A
C1154     Br1155   1.908       .  S
C1159      C1160   1.405   1_455  A
C1159      C1164   1.386       .  A
C1159      H1166   1.068       .  S
C1160      C1161   1.432       .  A
C1161      C1162   1.389       .  A
C1161     Br1168   1.930       .  S
C1162      C1163   1.406   1_565  A
C1162      H1167   1.082   1_565  S
C1163      C1164   1.417   1_645  A
C1164     Br1165   1.911   1_565  S
C1169      C1170   1.403   1_455  A
C1169      C1174   1.386       .  A
C1169      H1176   1.060       .  S
C1170      C1171   1.433       .  A
C1171      C1172   1.400       .  A
C1171     Br1178   1.929       .  S
C1172      C1173   1.412   1_565  A
C1172      H1177   1.073   1_565  S
C1173      C1174   1.423   1_645  A
C1174     Br1175   1.930   1_565  S
C1179      C1180   1.412       .  A
C1179      C1184   1.385       .  A
C1179      H1186   1.077       .  S
C1180      C1181   1.435   1_655  A
C1181      C1182   1.401       .  A
C1181     Br1188   1.936       .  S
C1182      C1183   1.408   1_455  A
C1182      H1187   1.072       .  S
C1183      C1184   1.428       .  A
C1184     Br1185   1.926       .  S
C1189      C1190   1.401       .  A
C1189      C1194   1.391       .  A
C1189      H1196   1.084       .  S
C1190      C1191   1.389       .  A
C1191      C1192   1.385       .  A
C1191     Br1198   1.917       .  S
C1192      C1193   1.426       .  A
C1192      H1197   1.084       .  S
C1193      C1194   1.419       .  A
C1194     Br1195   1.923       .  S
C1199      C1200   1.386       .  A
C1199      C1204   1.383       .  A
C1199      H1206   1.085       .  S
C1200      C1201   1.398       .  A
C1201      C1202   1.385       .  A
C1201     Br1208   1.920       .  S
C1202      C1203   1.418       .  A
C1202      H1207   1.078       .  S
C1203      C1204   1.428       .  A
C1204     Br1205   1.905       .  S
C1209      C1210   1.405       .  A
C1209      C1214   1.392       .  A
C1209      H1216   1.083       .  S
C1210      C1211   1.410       .  A
C1211      C1212   1.393       .  A
C1211     Br1218   1.922       .  S
C1212      C1213   1.409   1_455  A
C1212      H1217   1.073   1_455  S
C1213      C1214   1.411   1_655  A
C1214     Br1215   1.921       .  S
C1219      C1220   1.412       .  A
C1219      C1224   1.382       .  A
C1219      H1226   1.080       .  S
C1220      C1221   1.427       .  A
C1221      C1222   1.383       .  A
C1221     Br1228   1.927   1_455  S
C1222      C1223   1.396       .  A
C1222      H1227   1.084       .  S
C1223      C1224   1.405       .  A
C1224     Br1225   1.923       .  S
C1229      C1230   1.397       .  A
C1229      C1234   1.379       .  A
C1229      H1236   1.060       .  S
C1230      C1231   1.435       .  A
C1231      C1232   1.404       .  A
C1231     Br1238   1.926       .  S
C1232      C1233   1.408       .  A
C1232      H1237   1.081       .  S
C1233      C1234   1.422       .  A
C1234     Br1235   1.916       .  S
C1239      C1240   1.409       .  A
C1239      C1244   1.408       .  A
C1239      H1246   1.071       .  S
C1240      C1241   1.423       .  A
C1241      C1242   1.387       .  A
C1241     Br1248   1.933       .  S
C1242      C1243   1.410       .  A
C1242      H1247   1.064       .  S
C1243      C1244   1.448       .  A
C1244     Br1245   1.941       .  S
C1249      C1250   1.422       .  A
C1249      C1254   1.373       .  A
C1249      H1256   1.076       .  S
C1250      C1251   1.444       .  A
C1251      C1252   1.409       .  A
C1251     Br1258   1.920       .  S
C1252      C1253   1.409       .  A
C1252      H1257   1.081       .  S
C1253      C1254   1.413       .  A
C1254     Br1255   1.935       .  S
C1259      C1260   1.399       .  A
C1259      C1264   1.402       .  A
C1259      H1266   1.082       .  S
C1260      C1261   1.440       .  A
C1261      C1262   1.382       .  A
C1261     Br1268   1.930       .  S
C1262      C1263   1.388       .  A
C1262      H1267   1.084       .  S
C1263      C1264   1.408       .  A
C1264     Br1265   1.918       .  S
C1269      C1270   1.421       .  A
C1269      C1274   1.386       .  A
C1269      H1276   1.077       .  S
C1270      C1271   1.433       .  A
C1271      C1272   1.385       .  A
C1271     Br1278   1.914       .  S
C1272      C1273   1.388       .  A
C1272      H1277   1.084       .  S
C1273      C1274   1.398       .  A
C1274     Br1275   1.924       .  S
C1279      C1280   1.392       .  A
C1279      C1284   1.380       .  A
C1279      H1286   1.085       .  S
C1280      C1281   1.403       .  A
C1281      C1282   1.397       .  A
C1281     Br1288   1.918       .  S
C1282      C1283   1.418       .  A
C1282      H1287   1.077       .  S
C1283      C1284   1.420       .  A
C1284     Br1285   1.925       .  S
C1289      C1290   1.395       .  A
C1289      C1294   1.386       .  A
C1289      H1296   1.084       .  S
C1290      C1291   1.401       .  A
C1291      C1292   1.382       .  A
C1291     Br1298   1.925       .  S
C1292      C1293   1.415       .  A
C1292      H1297   1.079       .  S
C1293      C1294   1.428       .  A
C1294     Br1295   1.928       .  S
C1299      C1300   1.410       .  A
C1299      C1304   1.395       .  A
C1299      H1306   1.072       .  S
C1300      C1301   1.428       .  A
C1301      C1302   1.403       .  A
C1301     Br1308   1.925       .  S
C1302      C1303   1.413       .  A
C1302      H1307   1.081       .  S
C1303      C1304   1.432       .  A
C1304     Br1305   1.935       .  S
C1309      C1310   1.405       .  A
C1309      C1314   1.400   1_565  A
C1309      H1316   1.077       .  S
C1310      C1311   1.420   1_565  A
C1311      C1312   1.393       .  A
C1311     Br1318   1.919   1_545  S
C1312      C1313   1.412       .  A
C1312      H1317   1.069       .  S
C1313      C1314   1.446       .  A
C1314     Br1315   1.930       .  S
C1319      C1320   1.424       .  A
C1319      C1324   1.410       .  A
C1319      H1326   1.072       .  S
C1320      C1321   1.423       .  A
C1321      C1322   1.372       .  A
C1321     Br1328   1.929       .  S
C1322      C1323   1.410       .  A
C1322      H1327   1.084       .  S
C1323      C1324   1.405       .  A
C1324     Br1325   1.923       .  S
C1329      C1330   1.423       .  A
C1329      C1334   1.370       .  A
C1329      H1336   1.080       .  S
C1330      C1331   1.423       .  A
C1331      C1332   1.389       .  A
C1331     Br1338   1.913       .  S
C1332      C1333   1.391       .  A
C1332      H1337   1.084       .  S
C1333      C1334   1.388       .  A
C1334     Br1335   1.921       .  S
C1339      C1340   1.396       .  A
C1339      C1344   1.387       .  A
C1339      H1346   1.084       .  S
C1340      C1341   1.411       .  A
C1341      C1342   1.396       .  A
C1341     Br1348   1.919       .  S
C1342      C1343   1.412       .  A
C1342      H1347   1.082       .  S
C1343      C1344   1.423       .  A
C1344     Br1345   1.912       .  S
C1349      C1350   1.393       .  A
C1349      C1354   1.385       .  A
C1349      H1356   1.084       .  S
C1350      C1351   1.400       .  A
C1351      C1352   1.382       .  A
C1351     Br1358   1.925       .  S
C1352      C1353   1.417       .  A
C1352      H1357   1.078       .  S
C1353      C1354   1.429       .  A
C1354     Br1355   1.924       .  S
C1359      C1360   1.398       .  A
C1359      C1364   1.397       .  A
C1359      H1366   1.084       .  S
C1360      C1361   1.397       .  A
C1361      C1362   1.388       .  A
C1361     Br1368   1.921       .  S
C1362      C1363   1.420       .  A
C1362      H1367   1.081       .  S
C1363      C1364   1.427       .  A
C1364     Br1365   1.924       .  S
